xflr5 v6.61

 Calculated polar for: QX0026 thickness=13.65

 1 1 Reynolds number fixed          Mach number fixed         

 xtrf =   1.000 (top)        1.000 (bottom)
 Mach =   0.000     Re =     0.400 e 6     Ncrit =   9.000

  alpha     CL        CD       CDp       Cm    Top Xtr Bot Xtr   Cpmin    Chinge    XCp    
 ------- -------- --------- --------- -------- ------- ------- -------- --------- ---------
  -9.500  -0.1671   0.09010   0.08691  -0.0806  0.8465  0.0381  -1.8430   0.0000   0.0000   0.0000  -0.2692
  -8.750  -0.2565   0.04657   0.04320  -0.1214  0.8307  0.0320  -3.6516   0.0000   0.0000   0.0000  -0.2485
  -8.500  -0.2439   0.04397   0.04051  -0.1243  0.8264  0.0324  -3.5696   0.0000   0.0000   0.0000  -0.2845
  -8.250  -0.2252   0.04296   0.03945  -0.1253  0.8228  0.0332  -3.4061   0.0000   0.0000   0.0000  -0.3327
  -8.000  -0.2019   0.04344   0.03991  -0.1258  0.8195  0.0373  -3.1522   0.0000   0.0000   0.0000  -0.4006
  -7.750  -0.1696   0.04781   0.04439  -0.1236  0.8158  0.0467  -2.7123   0.0000   0.0000   0.0000  -0.5092
  -7.500  -0.1568   0.04413   0.04056  -0.1265  0.8125  0.0473  -2.6949   0.0000   0.0000   0.0000  -0.5881
  -7.250  -0.1853   0.02004   0.01380  -0.1334  0.8081  0.0329  -3.9305   0.0000   0.0000   0.0000  -0.4997
  -7.000  -0.1592   0.01927   0.01289  -0.1334  0.8049  0.0340  -3.7533   0.0000   0.0000   0.0000  -0.6216
  -6.750  -0.1328   0.01831   0.01168  -0.1334  0.8023  0.0351  -3.6052   0.0000   0.0000   0.0000  -0.7929
  -6.500  -0.1065   0.01742   0.01058  -0.1334  0.7988  0.0361  -3.4735   0.0000   0.0000   0.0000  -1.0480
  -6.250  -0.0800   0.01667   0.00984  -0.1335  0.7957  0.0373  -3.3064   0.0000   0.0000   0.0000  -1.4757
  -6.000  -0.0525   0.01622   0.00930  -0.1335  0.7932  0.0390  -3.1375   0.0000   0.0000   0.0000  -2.3783
  -5.750  -0.0249   0.01582   0.00873  -0.1336  0.7900  0.0407  -2.9836   0.0000   0.0000   0.0000  -5.2876
  -5.500   0.0017   0.01510   0.00806  -0.1336  0.7867  0.0424  -2.8236   0.0000   0.0000   0.0000  83.2066
  -5.250   0.0295   0.01468   0.00758  -0.1337  0.7841  0.0444  -2.6636   0.0000   0.0000   0.0000   4.9183
  -5.000   0.0569   0.01420   0.00703  -0.1337  0.7814  0.0466  -2.5106   0.0000   0.0000   0.0000   2.6630
  -4.750   0.0844   0.01387   0.00672  -0.1338  0.7779  0.0493  -2.3618   0.0000   0.0000   0.0000   1.8765
  -4.500   0.1121   0.01346   0.00627  -0.1339  0.7751  0.0523  -2.2241   0.0000   0.0000   0.0000   1.4728
  -4.250   0.1404   0.01316   0.00593  -0.1340  0.7728  0.0557  -2.0817   0.0000   0.0000   0.0000   1.2259
  -4.000   0.1677   0.01283   0.00563  -0.1341  0.7691  0.0597  -1.9439   0.0000   0.0000   0.0000   1.0664
  -3.750   0.1957   0.01253   0.00533  -0.1342  0.7660  0.0648  -1.8062   0.0000   0.0000   0.0000   0.9491
  -3.500   0.2242   0.01226   0.00504  -0.1344  0.7635  0.0711  -1.6730   0.0000   0.0000   0.0000   0.8601
  -3.250   0.2520   0.01202   0.00484  -0.1345  0.7601  0.0794  -1.5512   0.0000   0.0000   0.0000   0.7924
  -3.000   0.2801   0.01177   0.00463  -0.1346  0.7568  0.0915  -1.4308   0.0000   0.0000   0.0000   0.7378
  -2.750   0.3087   0.01150   0.00441  -0.1348  0.7541  0.1120  -1.3107   0.0000   0.0000   0.0000   0.6927
  -2.500   0.3366   0.01121   0.00428  -0.1350  0.7509  0.1491  -1.1929   0.0000   0.0000   0.0000   0.6560
  -2.250   0.3644   0.01096   0.00421  -0.1352  0.7473  0.1998  -1.0845   0.0000   0.0000   0.0000   0.6250
  -2.000   0.3930   0.01075   0.00413  -0.1355  0.7444  0.2485  -0.9765   0.0000   0.0000   0.0000   0.5978
  -1.750   0.4213   0.01059   0.00409  -0.1357  0.7414  0.2951  -0.8710   0.0000   0.0000   0.0000   0.5744
  -1.500   0.4490   0.01043   0.00408  -0.1358  0.7376  0.3447  -0.7819   0.0000   0.0000   0.0000   0.5542
  -1.250   0.4774   0.01023   0.00403  -0.1360  0.7345  0.4028  -0.8000   0.0000   0.0000   0.0000   0.5361
  -1.000   0.5055   0.01003   0.00402  -0.1362  0.7315  0.4731  -0.8183   0.0000   0.0000   0.0000   0.5200
  -0.750   0.5323   0.00982   0.00408  -0.1361  0.7275  0.5572  -0.8363   0.0000   0.0000   0.0000   0.5058
  -0.500   0.5592   0.00957   0.00410  -0.1359  0.7243  0.6535  -0.8550   0.0000   0.0000   0.0000   0.4926
  -0.250   0.5851   0.00938   0.00415  -0.1353  0.7211  0.7415  -0.8736   0.0000   0.0000   0.0000   0.4805
   0.000   0.6083   0.00919   0.00421  -0.1341  0.7169  0.8221  -0.8912   0.0000   0.0000   0.0000   0.4692
   0.250   0.6317   0.00898   0.00417  -0.1324  0.7137  0.9223  -0.9097   0.0000   0.0000   0.0000   0.4581
   0.500   0.6745   0.00892   0.00409  -0.1356  0.7101  1.0001  -0.9389   0.0000   0.0000   0.0000   0.4490
   0.750   0.7022   0.00898   0.00409  -0.1356  0.7058  1.0001  -0.9603   0.0000   0.0000   0.0000   0.4408
   1.000   0.7313   0.00901   0.00404  -0.1359  0.7025  1.0001  -0.9834   0.0000   0.0000   0.0000   0.4331
   1.250   0.7586   0.00908   0.00409  -0.1359  0.6979  1.0001  -1.0057   0.0000   0.0000   0.0000   0.4261
   1.500   0.7869   0.00913   0.00408  -0.1360  0.6938  1.0001  -1.0294   0.0000   0.0000   0.0000   0.4195
   1.750   0.8154   0.00918   0.00408  -0.1361  0.6899  1.0001  -1.0540   0.0000   0.0000   0.0000   0.4133
   2.000   0.8427   0.00924   0.00413  -0.1361  0.6849  1.0001  -1.0785   0.0000   0.0000   0.0000   0.4075
   2.250   0.8718   0.00928   0.00409  -0.1363  0.6811  1.0001  -1.1051   0.0000   0.0000   0.0000   0.4020
   2.500   0.8984   0.00935   0.00418  -0.1362  0.6755  1.0001  -1.1308   0.0000   0.0000   0.0000   0.3969
   2.750   0.9271   0.00939   0.00417  -0.1363  0.6711  1.0001  -1.1589   0.0000   0.0000   0.0000   0.3921
   3.000   0.9538   0.00946   0.00425  -0.1362  0.6654  1.0001  -1.1867   0.0000   0.0000   0.0000   0.3875
   3.250   0.9822   0.00951   0.00425  -0.1363  0.6605  1.0001  -1.2168   0.0000   0.0000   0.0000   0.3832
   3.500   1.0087   0.00958   0.00435  -0.1361  0.6543  1.0001  -1.2469   0.0000   0.0000   0.0000   0.3790
   3.750   1.0369   0.00963   0.00435  -0.1362  0.6491  1.0001  -1.2796   0.0000   0.0000   0.0000   0.3751
   4.000   1.0630   0.00970   0.00445  -0.1359  0.6420  1.0001  -1.3123   0.0000   0.0000   0.0000   0.3713
   4.250   1.0899   0.00977   0.00453  -0.1358  0.6354  1.0001  -1.3473   0.0000   0.0000   0.0000   0.3677
   4.500   1.1168   0.00984   0.00458  -0.1356  0.6286  1.0001  -1.3844   0.0000   0.0000   0.0000   0.3642
   4.750   1.1426   0.00993   0.00469  -0.1353  0.6204  1.0001  -1.4225   0.0000   0.0000   0.0000   0.3609
   5.000   1.1686   0.01003   0.00480  -0.1350  0.6123  1.0001  -1.4634   0.0000   0.0000   0.0000   0.3576
   5.250   1.1945   0.01014   0.00490  -0.1347  0.6037  1.0001  -1.5074   0.0000   0.0000   0.0000   0.3545
   5.500   1.2199   0.01026   0.00501  -0.1343  0.5945  1.0001  -1.5555   0.0000   0.0000   0.0000   0.3515
   5.750   1.2449   0.01040   0.00515  -0.1338  0.5844  1.0001  -1.6112   0.0000   0.0000   0.0000   0.3486
   6.000   1.2692   0.01056   0.00531  -0.1333  0.5733  1.0001  -1.6824   0.0000   0.0000   0.0000   0.3457
   6.250   1.2929   0.01074   0.00550  -0.1326  0.5611  1.0001  -1.7615   0.0000   0.0000   0.0000   0.3429
   6.500   1.3160   0.01095   0.00571  -0.1318  0.5478  1.0001  -1.8446   0.0000   0.0000   0.0000   0.3401
   6.750   1.3381   0.01120   0.00593  -0.1309  0.5333  1.0001  -1.9315   0.0000   0.0000   0.0000   0.3374
   7.000   1.3591   0.01149   0.00618  -0.1297  0.5175  1.0001  -2.0227   0.0000   0.0000   0.0000   0.3347
   7.250   1.3787   0.01184   0.00649  -0.1284  0.5000  1.0001  -2.1191   0.0000   0.0000   0.0000   0.3320
   7.500   1.3970   0.01224   0.00683  -0.1268  0.4816  1.0001  -2.2203   0.0000   0.0000   0.0000   0.3292
   7.750   1.4138   0.01271   0.00723  -0.1250  0.4634  1.0001  -2.3214   0.0000   0.0000   0.0000   0.3265
   8.000   1.4294   0.01320   0.00767  -0.1230  0.4452  1.0001  -2.4273   0.0000   0.0000   0.0000   0.3238
   8.250   1.4423   0.01371   0.00814  -0.1206  0.4278  1.0001  -2.5283   0.0000   0.0000   0.0000   0.3209
   8.750   1.4653   0.01497   0.00930  -0.1155  0.3928  1.0001  -2.7316   0.0000   0.0000   0.0000   0.3153
   9.000   1.4757   0.01573   0.01002  -0.1130  0.3749  1.0001  -2.8357   0.0000   0.0000   0.0000   0.3127
   9.250   1.4848   0.01662   0.01085  -0.1105  0.3567  1.0001  -2.9373   0.0000   0.0000   0.0000   0.3101
   9.500   1.4935   0.01759   0.01177  -0.1081  0.3377  1.0001  -3.0387   0.0000   0.0000   0.0000   0.3076
   9.750   1.5015   0.01868   0.01280  -0.1058  0.3183  1.0001  -3.1389   0.0000   0.0000   0.0000   0.3053
  10.000   1.5085   0.01989   0.01394  -0.1035  0.2986  1.0001  -3.2426   0.0000   0.0000   0.0000   0.3030
  10.250   1.5147   0.02122   0.01520  -0.1013  0.2787  1.0001  -3.3453   0.0000   0.0000   0.0000   0.3007
  10.500   1.5200   0.02266   0.01657  -0.0991  0.2588  1.0001  -3.4462   0.0000   0.0000   0.0000   0.2986
  10.750   1.5245   0.02421   0.01804  -0.0969  0.2390  1.0001  -3.5448   0.0000   0.0000   0.0000   0.2965
  11.250   1.5317   0.02756   0.02124  -0.0926  0.2003  1.0001  -3.7384   0.0000   0.0000   0.0000   0.2925
  11.500   1.5344   0.02936   0.02297  -0.0905  0.1815  1.0001  -3.8338   0.0000   0.0000   0.0000   0.2905
  11.750   1.5364   0.03125   0.02479  -0.0885  0.1634  1.0001  -3.9328   0.0000   0.0000   0.0000   0.2886
  12.000   1.5377   0.03322   0.02670  -0.0865  0.1463  1.0001  -4.0291   0.0000   0.0000   0.0000   0.2868
  12.250   1.5385   0.03529   0.02869  -0.0845  0.1305  1.0001  -4.1243   0.0000   0.0000   0.0000   0.2850
  12.500   1.5393   0.03743   0.03077  -0.0827  0.1159  1.0001  -4.2192   0.0000   0.0000   0.0000   0.2833
  12.750   1.5400   0.03962   0.03292  -0.0810  0.1030  1.0001  -4.3139   0.0000   0.0000   0.0000   0.2816
  13.000   1.5406   0.04189   0.03516  -0.0794  0.0918  1.0001  -4.4082   0.0000   0.0000   0.0000   0.2800
  13.250   1.5407   0.04428   0.03752  -0.0779  0.0825  1.0001  -4.5006   0.0000   0.0000   0.0000   0.2785
  13.500   1.5418   0.04665   0.03989  -0.0765  0.0747  1.0001  -4.5981   0.0000   0.0000   0.0000   0.2771
  13.750   1.5426   0.04909   0.04234  -0.0752  0.0683  1.0001  -4.7000   0.0000   0.0000   0.0000   0.2757
  14.000   1.5430   0.05162   0.04489  -0.0741  0.0632  1.0001  -4.7998   0.0000   0.0000   0.0000   0.2744
  14.250   1.5427   0.05430   0.04760  -0.0730  0.0588  1.0001  -4.8967   0.0000   0.0000   0.0000   0.2732
  14.500   1.5429   0.05699   0.05033  -0.0720  0.0550  1.0001  -4.9960   0.0000   0.0000   0.0000   0.2720
  14.750   1.5438   0.05966   0.05306  -0.0712  0.0515  1.0001  -5.0977   0.0000   0.0000   0.0000   0.2709
  15.000   1.5417   0.06269   0.05612  -0.0703  0.0488  1.0001  -5.1864   0.0000   0.0000   0.0000   0.2698
  15.250   1.5421   0.06550   0.05900  -0.0697  0.0461  1.0001  -5.2863   0.0000   0.0000   0.0000   0.2688
  15.500   1.5395   0.06873   0.06228  -0.0691  0.0440  1.0001  -5.3709   0.0000   0.0000   0.0000   0.2680
  15.750   1.5394   0.07171   0.06534  -0.0686  0.0418  1.0001  -5.4718   0.0000   0.0000   0.0000   0.2671
  16.000   1.5335   0.07544   0.06910  -0.0682  0.0404  1.0001  -5.5471   0.0000   0.0000   0.0000   0.2664
  16.250   1.5343   0.07840   0.07218  -0.0680  0.0385  1.0001  -5.6537   0.0000   0.0000   0.0000   0.2656
  16.500   1.5321   0.08176   0.07561  -0.0678  0.0371  1.0001  -5.7473   0.0000   0.0000   0.0000   0.2650
  16.750   1.5257   0.08568   0.07957  -0.0677  0.0359  1.0001  -5.8174   0.0000   0.0000   0.0000   0.2646
  17.000   1.5258   0.08887   0.08288  -0.0677  0.0345  1.0001  -5.9195   0.0000   0.0000   0.0000   0.2640
  17.250   1.5236   0.09237   0.08645  -0.0679  0.0333  1.0001  -6.0118   0.0000   0.0000   0.0000   0.2635
  17.500   1.5180   0.09632   0.09043  -0.0681  0.0323  1.0001  -6.0847   0.0000   0.0000   0.0000   0.2633
  17.750   1.5155   0.09991   0.09413  -0.0684  0.0313  1.0001  -6.1693   0.0000   0.0000   0.0000   0.2629
  18.000   1.5137   0.10341   0.09774  -0.0688  0.0303  1.0001  -6.2586   0.0000   0.0000   0.0000   0.2626
  18.250   1.5112   0.10703   0.10143  -0.0693  0.0295  1.0001  -6.3452   0.0000   0.0000   0.0000   0.2624
  18.500   1.5078   0.11078   0.10522  -0.0699  0.0287  1.0001  -6.4265   0.0000   0.0000   0.0000   0.2623
  18.750   1.5046   0.11443   0.10892  -0.0705  0.0280  1.0001  -6.5067   0.0000   0.0000   0.0000   0.2621
  19.000   1.5036   0.11798   0.11261  -0.0712  0.0272  1.0001  -6.6037   0.0000   0.0000   0.0000   0.2621
  19.250   1.5023   0.12156   0.11628  -0.0721  0.0264  1.0001  -6.7007   0.0000   0.0000   0.0000   0.2621
  19.500   1.5009   0.12513   0.11991  -0.0731  0.0257  1.0001  -6.7991   0.0000   0.0000   0.0000   0.2621
  19.750   1.4996   0.12859   0.12339  -0.0740  0.0251  1.0001  -6.8982   0.0000   0.0000   0.0000   0.2621
  20.000   1.4990   0.13181   0.12666  -0.0748  0.0244  1.0001  -6.9971   0.0000   0.0000   0.0000   0.2620


