xflr5 v6.61

 Calculated polar for: QX0026 thickness=13.65

 1 1 Reynolds number fixed          Mach number fixed         

 xtrf =   1.000 (top)        1.000 (bottom)
 Mach =   0.000     Re =     0.320 e 6     Ncrit =   9.000

  alpha     CL        CD       CDp       Cm    Top Xtr Bot Xtr   Cpmin    Chinge    XCp    
 ------- -------- --------- --------- -------- ------- ------- -------- --------- ---------
 -10.000  -0.1676   0.09760   0.09429  -0.0797  0.8751  0.0420  -1.7600   0.0000   0.0000   0.0000  -0.2651
  -9.750  -0.1604   0.09482   0.09150  -0.0808  0.8702  0.0431  -1.7356   0.0000   0.0000   0.0000  -0.2941
  -8.500  -0.2524   0.04121   0.03715  -0.1302  0.8422  0.0357  -3.7774   0.0000   0.0000   0.0000  -0.2908
  -8.250  -0.2408   0.03760   0.03334  -0.1317  0.8388  0.0353  -3.7585   0.0000   0.0000   0.0000  -0.3221
  -8.000  -0.2329   0.03248   0.02776  -0.1336  0.8341  0.0349  -3.8447   0.0000   0.0000   0.0000  -0.3496
  -7.750  -0.2201   0.02796   0.02259  -0.1345  0.8307  0.0350  -3.9110   0.0000   0.0000   0.0000  -0.3880
  -7.500  -0.2017   0.02510   0.01899  -0.1348  0.8267  0.0359  -3.9070   0.0000   0.0000   0.0000  -0.4467
  -7.250  -0.1780   0.02363   0.01751  -0.1350  0.8233  0.0369  -3.7382   0.0000   0.0000   0.0000  -0.5394
  -7.000  -0.1527   0.02261   0.01635  -0.1351  0.8208  0.0378  -3.5752   0.0000   0.0000   0.0000  -0.6693
  -6.750  -0.1281   0.02129   0.01479  -0.1350  0.8168  0.0388  -3.4474   0.0000   0.0000   0.0000  -0.8438
  -6.500  -0.1024   0.02005   0.01321  -0.1349  0.8136  0.0400  -3.3391   0.0000   0.0000   0.0000  -1.1152
  -6.250  -0.0763   0.01898   0.01194  -0.1350  0.8110  0.0414  -3.2087   0.0000   0.0000   0.0000  -1.5808
  -6.000  -0.0499   0.01845   0.01142  -0.1350  0.8072  0.0431  -3.0436   0.0000   0.0000   0.0000  -2.5463
  -5.750  -0.0227   0.01779   0.01057  -0.1350  0.8042  0.0450  -2.9043   0.0000   0.0000   0.0000  -5.8910
  -5.500   0.0044   0.01697   0.00964  -0.1350  0.8018  0.0467  -2.7636   0.0000   0.0000   0.0000  31.5421
  -5.250   0.0310   0.01649   0.00916  -0.1350  0.7980  0.0487  -2.6100   0.0000   0.0000   0.0000   4.7225
  -5.000   0.0587   0.01603   0.00857  -0.1349  0.7949  0.0514  -2.4635   0.0000   0.0000   0.0000   2.6117
  -4.750   0.0863   0.01552   0.00808  -0.1350  0.7926  0.0543  -2.3173   0.0000   0.0000   0.0000   1.8560
  -4.500   0.1131   0.01510   0.00762  -0.1349  0.7888  0.0574  -2.1919   0.0000   0.0000   0.0000   1.4728
  -4.250   0.1405   0.01470   0.00725  -0.1350  0.7856  0.0611  -2.0546   0.0000   0.0000   0.0000   1.2332
  -4.000   0.1685   0.01431   0.00683  -0.1351  0.7832  0.0657  -1.9189   0.0000   0.0000   0.0000   1.0691
  -3.750   0.1954   0.01400   0.00654  -0.1351  0.7795  0.0710  -1.7893   0.0000   0.0000   0.0000   0.9550
  -3.500   0.2231   0.01369   0.00625  -0.1351  0.7762  0.0779  -1.6603   0.0000   0.0000   0.0000   0.8670
  -3.250   0.2516   0.01339   0.00595  -0.1353  0.7737  0.0873  -1.5404   0.0000   0.0000   0.0000   0.7970
  -3.000   0.2789   0.01312   0.00575  -0.1354  0.7701  0.1004  -1.4249   0.0000   0.0000   0.0000   0.7430
  -2.750   0.3066   0.01282   0.00555  -0.1355  0.7666  0.1231  -1.3095   0.0000   0.0000   0.0000   0.6981
  -2.500   0.3350   0.01246   0.00534  -0.1357  0.7639  0.1668  -1.1926   0.0000   0.0000   0.0000   0.6603
  -2.250   0.3623   0.01223   0.00531  -0.1359  0.7604  0.2228  -1.0863   0.0000   0.0000   0.0000   0.6292
  -2.000   0.3900   0.01203   0.00527  -0.1360  0.7568  0.2745  -0.9806   0.0000   0.0000   0.0000   0.6021
  -1.750   0.4186   0.01183   0.00518  -0.1363  0.7540  0.3267  -0.8747   0.0000   0.0000   0.0000   0.5780
  -1.500   0.4459   0.01167   0.00520  -0.1363  0.7504  0.3829  -0.7771   0.0000   0.0000   0.0000   0.5576
  -1.250   0.4732   0.01147   0.00521  -0.1364  0.7466  0.4506  -0.7945   0.0000   0.0000   0.0000   0.5394
  -1.000   0.5012   0.01121   0.00517  -0.1364  0.7438  0.5357  -0.8130   0.0000   0.0000   0.0000   0.5229
  -0.750   0.5267   0.01099   0.00528  -0.1360  0.7400  0.6310  -0.8304   0.0000   0.0000   0.0000   0.5084
  -0.500   0.5517   0.01079   0.00534  -0.1352  0.7362  0.7266  -0.8481   0.0000   0.0000   0.0000   0.4948
  -0.250   0.5756   0.01054   0.00531  -0.1339  0.7334  0.8140  -0.8659   0.0000   0.0000   0.0000   0.4819
   0.000   0.5974   0.01038   0.00537  -0.1320  0.7291  0.9164  -0.8828   0.0000   0.0000   0.0000   0.4698
   0.250   0.6417   0.01029   0.00523  -0.1354  0.7255  1.0001  -0.9121   0.0000   0.0000   0.0000   0.4594
   0.500   0.6712   0.01031   0.00514  -0.1357  0.7226  1.0001  -0.9344   0.0000   0.0000   0.0000   0.4503
   0.750   0.6976   0.01042   0.00522  -0.1355  0.7177  1.0001  -0.9548   0.0000   0.0000   0.0000   0.4421
   1.000   0.7264   0.01044   0.00517  -0.1357  0.7140  1.0001  -0.9776   0.0000   0.0000   0.0000   0.4343
   1.250   0.7544   0.01051   0.00518  -0.1358  0.7101  1.0001  -1.0005   0.0000   0.0000   0.0000   0.4271
   1.500   0.7819   0.01057   0.00521  -0.1358  0.7054  1.0001  -1.0237   0.0000   0.0000   0.0000   0.4204
   1.750   0.8115   0.01059   0.00513  -0.1361  0.7021  1.0001  -1.0491   0.0000   0.0000   0.0000   0.4141
   2.000   0.8378   0.01069   0.00524  -0.1359  0.6966  1.0001  -1.0728   0.0000   0.0000   0.0000   0.4083
   2.250   0.8667   0.01070   0.00520  -0.1361  0.6926  1.0001  -1.0993   0.0000   0.0000   0.0000   0.4027
   2.500   0.8937   0.01078   0.00527  -0.1360  0.6875  1.0001  -1.1252   0.0000   0.0000   0.0000   0.3976
   2.750   0.9219   0.01081   0.00527  -0.1360  0.6828  1.0001  -1.1530   0.0000   0.0000   0.0000   0.3927
   3.000   0.9493   0.01088   0.00532  -0.1360  0.6776  1.0001  -1.1811   0.0000   0.0000   0.0000   0.3880
   3.250   0.9771   0.01091   0.00533  -0.1360  0.6723  1.0001  -1.2109   0.0000   0.0000   0.0000   0.3836
   3.500   1.0041   0.01097   0.00539  -0.1359  0.6666  1.0001  -1.2413   0.0000   0.0000   0.0000   0.3794
   3.750   1.0321   0.01100   0.00539  -0.1359  0.6611  1.0001  -1.2738   0.0000   0.0000   0.0000   0.3755
   4.000   1.0582   0.01107   0.00548  -0.1356  0.6545  1.0001  -1.3065   0.0000   0.0000   0.0000   0.3716
   4.250   1.0868   0.01109   0.00546  -0.1357  0.6490  1.0001  -1.3428   0.0000   0.0000   0.0000   0.3680
   4.500   1.1121   0.01117   0.00558  -0.1353  0.6413  1.0001  -1.3783   0.0000   0.0000   0.0000   0.3645
   4.750   1.1382   0.01124   0.00566  -0.1350  0.6340  1.0001  -1.4166   0.0000   0.0000   0.0000   0.3611
   5.000   1.1652   0.01129   0.00569  -0.1348  0.6269  1.0001  -1.4583   0.0000   0.0000   0.0000   0.3578
   5.250   1.1907   0.01137   0.00579  -0.1344  0.6184  1.0001  -1.5018   0.0000   0.0000   0.0000   0.3547
   5.500   1.2156   0.01147   0.00591  -0.1339  0.6093  1.0001  -1.5489   0.0000   0.0000   0.0000   0.3516
   5.750   1.2405   0.01158   0.00604  -0.1334  0.5997  1.0001  -1.6036   0.0000   0.0000   0.0000   0.3486
   6.000   1.2650   0.01171   0.00618  -0.1328  0.5895  1.0001  -1.6735   0.0000   0.0000   0.0000   0.3457
   6.250   1.2890   0.01186   0.00633  -0.1322  0.5785  1.0001  -1.7522   0.0000   0.0000   0.0000   0.3429
   6.500   1.3125   0.01203   0.00650  -0.1314  0.5666  1.0001  -1.8354   0.0000   0.0000   0.0000   0.3401
   6.750   1.3352   0.01223   0.00669  -0.1305  0.5538  1.0001  -1.9228   0.0000   0.0000   0.0000   0.3374
   7.000   1.3568   0.01247   0.00691  -0.1295  0.5396  1.0001  -2.0145   0.0000   0.0000   0.0000   0.3347
   7.250   1.3770   0.01275   0.00719  -0.1282  0.5238  1.0001  -2.1116   0.0000   0.0000   0.0000   0.3320
   7.500   1.3960   0.01309   0.00748  -0.1267  0.5070  1.0001  -2.2135   0.0000   0.0000   0.0000   0.3293
   7.750   1.4133   0.01349   0.00783  -0.1250  0.4890  1.0001  -2.3159   0.0000   0.0000   0.0000   0.3265
   8.000   1.4293   0.01395   0.00824  -0.1230  0.4710  1.0001  -2.4219   0.0000   0.0000   0.0000   0.3238
   8.250   1.4434   0.01447   0.00871  -0.1208  0.4535  1.0001  -2.5256   0.0000   0.0000   0.0000   0.3210
   8.500   1.4547   0.01501   0.00921  -0.1180  0.4360  1.0001  -2.6237   0.0000   0.0000   0.0000   0.3181
   8.750   1.4653   0.01564   0.00981  -0.1154  0.4189  1.0001  -2.7254   0.0000   0.0000   0.0000   0.3153
   9.000   1.4750   0.01638   0.01050  -0.1127  0.4013  1.0001  -2.8275   0.0000   0.0000   0.0000   0.3125
   9.250   1.4844   0.01719   0.01128  -0.1101  0.3833  1.0001  -2.9297   0.0000   0.0000   0.0000   0.3099
   9.500   1.4924   0.01813   0.01218  -0.1076  0.3653  1.0001  -3.0292   0.0000   0.0000   0.0000   0.3073
   9.750   1.4992   0.01921   0.01320  -0.1050  0.3469  1.0001  -3.1260   0.0000   0.0000   0.0000   0.3049
  10.000   1.5060   0.02038   0.01432  -0.1026  0.3277  1.0001  -3.2272   0.0000   0.0000   0.0000   0.3025
  10.250   1.5117   0.02168   0.01556  -0.1003  0.3082  1.0001  -3.3283   0.0000   0.0000   0.0000   0.3002
  10.500   1.5166   0.02310   0.01693  -0.0980  0.2886  1.0001  -3.4275   0.0000   0.0000   0.0000   0.2980
  10.750   1.5205   0.02465   0.01841  -0.0957  0.2688  1.0001  -3.5242   0.0000   0.0000   0.0000   0.2959
  11.000   1.5236   0.02631   0.02001  -0.0935  0.2491  1.0001  -3.6187   0.0000   0.0000   0.0000   0.2938
  11.250   1.5258   0.02809   0.02171  -0.0912  0.2295  1.0001  -3.7105   0.0000   0.0000   0.0000   0.2918
  11.500   1.5273   0.02996   0.02352  -0.0891  0.2103  1.0001  -3.8006   0.0000   0.0000   0.0000   0.2899
  11.750   1.5286   0.03191   0.02540  -0.0870  0.1911  1.0001  -3.8952   0.0000   0.0000   0.0000   0.2880
  12.000   1.5289   0.03397   0.02739  -0.0850  0.1726  1.0001  -3.9872   0.0000   0.0000   0.0000   0.2861
  12.250   1.5285   0.03614   0.02949  -0.0830  0.1549  1.0001  -4.0772   0.0000   0.0000   0.0000   0.2843
  12.500   1.5278   0.03842   0.03171  -0.0811  0.1382  1.0001  -4.1654   0.0000   0.0000   0.0000   0.2826
  12.750   1.5266   0.04080   0.03403  -0.0793  0.1230  1.0001  -4.2518   0.0000   0.0000   0.0000   0.2810
  13.000   1.5255   0.04326   0.03644  -0.0777  0.1094  1.0001  -4.3380   0.0000   0.0000   0.0000   0.2794
  13.250   1.5244   0.04580   0.03895  -0.0762  0.0978  1.0001  -4.4239   0.0000   0.0000   0.0000   0.2779
  13.500   1.5226   0.04847   0.04159  -0.0747  0.0885  1.0001  -4.5065   0.0000   0.0000   0.0000   0.2765
  13.750   1.5218   0.05110   0.04422  -0.0735  0.0805  1.0001  -4.5967   0.0000   0.0000   0.0000   0.2752
  14.000   1.5209   0.05382   0.04695  -0.0723  0.0738  1.0001  -4.6886   0.0000   0.0000   0.0000   0.2739
  14.250   1.5197   0.05664   0.04979  -0.0713  0.0684  1.0001  -4.7790   0.0000   0.0000   0.0000   0.2727
  14.500   1.5177   0.05961   0.05279  -0.0703  0.0640  1.0001  -4.8656   0.0000   0.0000   0.0000   0.2716
  14.750   1.5161   0.06258   0.05580  -0.0695  0.0601  1.0001  -4.9535   0.0000   0.0000   0.0000   0.2706
  15.000   1.5155   0.06550   0.05879  -0.0687  0.0565  1.0001  -5.0445   0.0000   0.0000   0.0000   0.2696
  15.250   1.5119   0.06883   0.06214  -0.0681  0.0537  1.0001  -5.1226   0.0000   0.0000   0.0000   0.2687
  15.500   1.5115   0.07184   0.06524  -0.0676  0.0508  1.0001  -5.2145   0.0000   0.0000   0.0000   0.2678
  15.750   1.5081   0.07526   0.06870  -0.0672  0.0486  1.0001  -5.2916   0.0000   0.0000   0.0000   0.2671
  16.000   1.5073   0.07839   0.07191  -0.0669  0.0462  1.0001  -5.3855   0.0000   0.0000   0.0000   0.2663
  16.250   1.5023   0.08204   0.07558  -0.0666  0.0446  1.0001  -5.4614   0.0000   0.0000   0.0000   0.2657
  16.500   1.5023   0.08517   0.07883  -0.0665  0.0426  1.0001  -5.5598   0.0000   0.0000   0.0000   0.2650
  16.750   1.4998   0.08863   0.08234  -0.0665  0.0411  1.0001  -5.6474   0.0000   0.0000   0.0000   0.2645
  17.000   1.4968   0.09214   0.08590  -0.0664  0.0397  1.0001  -5.7297   0.0000   0.0000   0.0000   0.2640
  17.250   1.4963   0.09541   0.08928  -0.0666  0.0381  1.0001  -5.8241   0.0000   0.0000   0.0000   0.2635
  17.500   1.4946   0.09881   0.09272  -0.0668  0.0369  1.0001  -5.9154   0.0000   0.0000   0.0000   0.2631
  17.750   1.4924   0.10216   0.09610  -0.0669  0.0357  1.0001  -6.0016   0.0000   0.0000   0.0000   0.2627
  18.000   1.4921   0.10549   0.09957  -0.0673  0.0345  1.0001  -6.0942   0.0000   0.0000   0.0000   0.2623
  18.250   1.4916   0.10880   0.10295  -0.0678  0.0333  1.0001  -6.1893   0.0000   0.0000   0.0000   0.2620
  18.500   1.4915   0.11193   0.10608  -0.0681  0.0324  1.0001  -6.2884   0.0000   0.0000   0.0000   0.2617
  18.750   1.4919   0.11499   0.10922  -0.0684  0.0315  1.0001  -6.3837   0.0000   0.0000   0.0000   0.2613
  19.000   1.4919   0.11831   0.11267  -0.0691  0.0306  1.0001  -6.4830   0.0000   0.0000   0.0000   0.2611
  19.250   1.4924   0.12152   0.11596  -0.0698  0.0297  1.0001  -6.5891   0.0000   0.0000   0.0000   0.2609
  19.500   1.4941   0.12441   0.11887  -0.0704  0.0289  1.0001  -6.7073   0.0000   0.0000   0.0000   0.2606
  19.750   1.4975   0.12675   0.12121  -0.0706  0.0281  1.0001  -6.8350   0.0000   0.0000   0.0000   0.2600
  20.000   1.4953   0.13060   0.12524  -0.0719  0.0274  1.0001  -6.9138   0.0000   0.0000   0.0000   0.2603


