xflr5 v6.61

 Calculated polar for: QX0026 thickness=13.65

 1 1 Reynolds number fixed          Mach number fixed         

 xtrf =   1.000 (top)        1.000 (bottom)
 Mach =   0.000     Re =     0.100 e 6     Ncrit =   9.000

  alpha     CL        CD       CDp       Cm    Top Xtr Bot Xtr   Cpmin    Chinge    XCp    
 ------- -------- --------- --------- -------- ------- ------- -------- --------- ---------
  -9.750  -0.2459   0.11991   0.11524  -0.0596  0.9770  0.0997  -1.4851   0.0000   0.0000   0.0000  -0.0177
  -9.500  -0.2444   0.11689   0.11223  -0.0643  0.9724  0.1039  -1.5377   0.0000   0.0000   0.0000  -0.0379
  -9.250  -0.2249   0.11285   0.10817  -0.0663  0.9697  0.1069  -1.4819   0.0000   0.0000   0.0000  -0.0714
  -9.000  -0.2243   0.11005   0.10539  -0.0704  0.9646  0.1117  -1.5249   0.0000   0.0000   0.0000  -0.0897
  -8.750  -0.2080   0.10631   0.10165  -0.0721  0.9611  0.1145  -1.4791   0.0000   0.0000   0.0000  -0.1237
  -8.500  -0.2038   0.10353   0.09888  -0.0749  0.9562  0.1192  -1.4916   0.0000   0.0000   0.0000  -0.1447
  -8.250  -0.2009   0.10036   0.09573  -0.0772  0.9511  0.1217  -1.5146   0.0000   0.0000   0.0000  -0.1611
  -8.000  -0.1897   0.09773   0.09309  -0.0780  0.9465  0.1259  -1.4846   0.0000   0.0000   0.0000  -0.1885
  -7.750  -0.2242   0.09658   0.09204  -0.0808  0.9371  0.1287  -1.6300   0.0000   0.0000   0.0000  -0.1327
  -7.500  -0.1889   0.09282   0.08823  -0.0798  0.9355  0.1326  -1.5057   0.0000   0.0000   0.0000  -0.1983
  -7.250  -0.2099   0.09143   0.08690  -0.0805  0.9274  0.1366  -1.5770   0.0000   0.0000   0.0000  -0.1556
  -6.750  -0.2086   0.08684   0.08234  -0.0803  0.9162  0.1442  -1.5655   0.0000   0.0000   0.0000  -0.1560
  -6.000  -0.2124   0.07977   0.07532  -0.0818  0.8993  0.1592  -1.5772   0.0000   0.0000   0.0000  -0.1534
  -5.000  -0.1800   0.05334   0.04761  -0.1057  0.8792  0.1100  -2.0820   0.0000   0.0000   0.0000  -0.3573
  -4.750  -0.1471   0.04486   0.03797  -0.1112  0.8761  0.0943  -2.2791   0.0000   0.0000   0.0000  -0.5317
  -4.500  -0.1056   0.04119   0.03359  -0.1151  0.8736  0.0940  -2.2581   0.0000   0.0000   0.0000  -0.8747
  -4.250  -0.0864   0.03952   0.03145  -0.1146  0.8688  0.0945  -2.2294   0.0000   0.0000   0.0000  -1.1179
  -4.000  -0.0477   0.03788   0.02941  -0.1170  0.8657  0.0990  -2.1283   0.0000   0.0000   0.0000  -2.2748
  -3.750  -0.0262   0.03715   0.02840  -0.1166  0.8609  0.1025  -2.0520   0.0000   0.0000   0.0000  -4.3174
  -3.500   0.0107   0.03607   0.02711  -0.1184  0.8575  0.1079  -1.9502   0.0000   0.0000   0.0000  11.5689
  -3.250   0.0330   0.03568   0.02655  -0.1180  0.8526  0.1141  -1.8711   0.0000   0.0000   0.0000   3.9121
  -3.000   0.0689   0.03497   0.02575  -0.1195  0.8490  0.1226  -1.7594   0.0000   0.0000   0.0000   2.0253
  -2.750   0.0902   0.03484   0.02562  -0.1190  0.8437  0.1318  -1.6687   0.0000   0.0000   0.0000   1.5971
  -2.500   0.1266   0.03432   0.02508  -0.1205  0.8400  0.1471  -1.5534   0.0000   0.0000   0.0000   1.2212
  -2.250   0.1467   0.03433   0.02519  -0.1198  0.8343  0.1628  -1.4736   0.0000   0.0000   0.0000   1.0823
  -2.000   0.1847   0.03382   0.02487  -0.1217  0.8307  0.1964  -1.3597   0.0000   0.0000   0.0000   0.9202
  -1.750   0.2037   0.03387   0.02519  -0.1210  0.8246  0.2398  -1.2807   0.0000   0.0000   0.0000   0.8530
  -1.500   0.2435   0.03319   0.02504  -0.1232  0.8212  0.3486  -1.1598   0.0000   0.0000   0.0000   0.7628
  -1.250   0.2599   0.03339   0.02563  -0.1220  0.8146  0.4391  -1.0829   0.0000   0.0000   0.0000   0.7251
  -1.000   0.2973   0.03281   0.02570  -0.1230  0.8115  0.6033  -0.9620   0.0000   0.0000   0.0000   0.6679
  -0.750   0.3032   0.03304   0.02645  -0.1189  0.8043  0.7506  -0.9022   0.0000   0.0000   0.0000   0.6455
  -0.500   0.3147   0.03312   0.02677  -0.1153  0.7974  1.0001  -0.8340   0.0000   0.0000   0.0000   0.6191
   0.000   0.3712   0.03418   0.02734  -0.1165  0.7855  1.0001  -0.6861   0.0000   0.0000   0.0000   0.5647
   0.250   0.3955   0.03481   0.02780  -0.1164  0.7789  1.0001  -0.7019   0.0000   0.0000   0.0000   0.5447
   0.500   0.4302   0.03511   0.02791  -0.1176  0.7740  1.0001  -0.7261   0.0000   0.0000   0.0000   0.5231
   0.750   0.4480   0.03592   0.02860  -0.1167  0.7661  1.0001  -0.7382   0.0000   0.0000   0.0000   0.5096
   1.250   0.5062   0.03678   0.02921  -0.1175  0.7542  1.0001  -0.7811   0.0000   0.0000   0.0000   0.4802
   1.500   0.5237   0.03761   0.02996  -0.1165  0.7459  1.0001  -0.7944   0.0000   0.0000   0.0000   0.4701
   1.750   0.5667   0.03747   0.02971  -0.1184  0.7429  1.0001  -0.8283   0.0000   0.0000   0.0000   0.4561
   2.000   0.5820   0.03836   0.03054  -0.1171  0.7339  1.0001  -0.8410   0.0000   0.0000   0.0000   0.4480
   2.250   0.5991   0.03921   0.03133  -0.1160  0.7253  1.0001  -0.8557   0.0000   0.0000   0.0000   0.4401
   2.500   0.6425   0.03889   0.03094  -0.1177  0.7224  1.0001  -0.8926   0.0000   0.0000   0.0000   0.4292
   3.000   0.6743   0.04066   0.03264  -0.1153  0.7043  1.0001  -0.9230   0.0000   0.0000   0.0000   0.4162
   3.500   0.7334   0.04103   0.03296  -0.1155  0.6923  1.0001  -0.9799   0.0000   0.0000   0.0000   0.4020
   3.750   0.7497   0.04189   0.03381  -0.1143  0.6830  1.0001  -0.9980   0.0000   0.0000   0.0000   0.3967
   4.250   0.8095   0.04200   0.03391  -0.1143  0.6712  1.0001  -1.0620   0.0000   0.0000   0.0000   0.3847
   4.500   0.8254   0.04284   0.03476  -0.1131  0.6617  1.0001  -1.0825   0.0000   0.0000   0.0000   0.3801
   5.500   0.9193   0.04409   0.03609  -0.1104  0.6310  1.0001  -1.2066   0.0000   0.0000   0.0000   0.3618
   5.750   0.9508   0.04372   0.03577  -0.1102  0.6255  1.0001  -1.2504   0.0000   0.0000   0.0000   0.3573
   6.500   1.0446   0.04205   0.03427  -0.1091  0.6079  1.0001  -1.4000   0.0000   0.0000   0.0000   0.3447
   6.750   1.0952   0.03963   0.03192  -0.1098  0.6071  1.0001  -1.4870   0.0000   0.0000   0.0000   0.3403
   7.250   1.1325   0.04008   0.03251  -0.1069  0.5882  1.0001  -1.6043   0.0000   0.0000   0.0000   0.3336
   7.500   1.1896   0.03711   0.02964  -0.1083  0.5870  1.0001  -1.7437   0.0000   0.0000   0.0000   0.3299
   7.750   1.2567   0.03383   0.02647  -0.1111  0.5856  1.0001  -1.9172   0.0000   0.0000   0.0000   0.3269
   8.000   1.2822   0.03336   0.02608  -0.1101  0.5758  1.0001  -2.0197   0.0000   0.0000   0.0000   0.3240
   8.250   1.3128   0.03255   0.02537  -0.1095  0.5662  1.0001  -2.1429   0.0000   0.0000   0.0000   0.3211
   8.500   1.3492   0.03141   0.02430  -0.1096  0.5562  1.0001  -2.2900   0.0000   0.0000   0.0000   0.3185
   8.750   1.3873   0.03021   0.02317  -0.1099  0.5448  1.0001  -2.4501   0.0000   0.0000   0.0000   0.3161
   9.000   1.4279   0.02896   0.02193  -0.1106  0.5318  1.0001  -2.6237   0.0000   0.0000   0.0000   0.3139
   9.250   1.4453   0.02884   0.02186  -0.1084  0.5165  1.0001  -2.7420   0.0000   0.0000   0.0000   0.3110
   9.500   1.4678   0.02854   0.02157  -0.1069  0.5000  1.0001  -2.8810   0.0000   0.0000   0.0000   0.3084
   9.750   1.4821   0.02871   0.02175  -0.1045  0.4828  1.0001  -2.9982   0.0000   0.0000   0.0000   0.3056
  10.000   1.5022   0.02869   0.02167  -0.1028  0.4646  1.0001  -3.1343   0.0000   0.0000   0.0000   0.3031
  10.250   1.5062   0.02947   0.02248  -0.0994  0.4464  1.0001  -3.2257   0.0000   0.0000   0.0000   0.3002
  10.500   1.5130   0.03022   0.02323  -0.0964  0.4279  1.0001  -3.3303   0.0000   0.0000   0.0000   0.2975
  10.750   1.5199   0.03102   0.02400  -0.0936  0.4089  1.0001  -3.4362   0.0000   0.0000   0.0000   0.2949
  11.000   1.5236   0.03206   0.02500  -0.0906  0.3898  1.0001  -3.5323   0.0000   0.0000   0.0000   0.2923
  11.250   1.5222   0.03348   0.02644  -0.0874  0.3705  1.0001  -3.6108   0.0000   0.0000   0.0000   0.2897
  11.500   1.5208   0.03500   0.02795  -0.0843  0.3510  1.0001  -3.6898   0.0000   0.0000   0.0000   0.2873
  11.750   1.5183   0.03670   0.02962  -0.0814  0.3311  1.0001  -3.7649   0.0000   0.0000   0.0000   0.2849
  12.000   1.5145   0.03860   0.03148  -0.0785  0.3110  1.0001  -3.8375   0.0000   0.0000   0.0000   0.2827
  12.250   1.5092   0.04071   0.03355  -0.0758  0.2906  1.0001  -3.9068   0.0000   0.0000   0.0000   0.2805
  12.500   1.5027   0.04304   0.03582  -0.0732  0.2702  1.0001  -3.9704   0.0000   0.0000   0.0000   0.2785
  12.750   1.4952   0.04557   0.03827  -0.0707  0.2498  1.0001  -4.0293   0.0000   0.0000   0.0000   0.2765
  13.000   1.4870   0.04829   0.04088  -0.0684  0.2298  1.0001  -4.0840   0.0000   0.0000   0.0000   0.2747
  13.250   1.4787   0.05116   0.04362  -0.0662  0.2107  1.0001  -4.1365   0.0000   0.0000   0.0000   0.2730
  13.500   1.4707   0.05419   0.04655  -0.0643  0.1924  1.0001  -4.1870   0.0000   0.0000   0.0000   0.2714
  13.750   1.4639   0.05723   0.04946  -0.0626  0.1758  1.0001  -4.2402   0.0000   0.0000   0.0000   0.2699
  14.000   1.4583   0.06027   0.05243  -0.0611  0.1606  1.0001  -4.2953   0.0000   0.0000   0.0000   0.2685
  14.250   1.4545   0.06324   0.05535  -0.0597  0.1472  1.0001  -4.3549   0.0000   0.0000   0.0000   0.2671
  14.500   1.4542   0.06585   0.05781  -0.0584  0.1357  1.0001  -4.4361   0.0000   0.0000   0.0000   0.2657
  14.750   1.4536   0.06861   0.06059  -0.0573  0.1254  1.0001  -4.5113   0.0000   0.0000   0.0000   0.2644
  15.000   1.4562   0.07102   0.06295  -0.0561  0.1166  1.0001  -4.6011   0.0000   0.0000   0.0000   0.2631
  15.250   1.4615   0.07316   0.06502  -0.0550  0.1087  1.0001  -4.7023   0.0000   0.0000   0.0000   0.2617
  15.500   1.4679   0.07524   0.06707  -0.0540  0.1017  1.0001  -4.8072   0.0000   0.0000   0.0000   0.2603
  15.750   1.4742   0.07741   0.06929  -0.0530  0.0956  1.0001  -4.9073   0.0000   0.0000   0.0000   0.2590
  16.000   1.4805   0.07965   0.07160  -0.0521  0.0903  1.0001  -5.0064   0.0000   0.0000   0.0000   0.2577
  16.250   1.4882   0.08175   0.07375  -0.0512  0.0855  1.0001  -5.1222   0.0000   0.0000   0.0000   0.2564
  16.500   1.5021   0.08325   0.07523  -0.0502  0.0811  1.0001  -5.2687   0.0000   0.0000   0.0000   0.2549
  16.750   1.5063   0.08585   0.07797  -0.0495  0.0775  1.0001  -5.3642   0.0000   0.0000   0.0000   0.2538
  17.000   1.5115   0.08843   0.08068  -0.0488  0.0744  1.0001  -5.4636   0.0000   0.0000   0.0000   0.2527
  17.250   1.5201   0.09061   0.08293  -0.0482  0.0713  1.0001  -5.5834   0.0000   0.0000   0.0000   0.2516
  17.500   1.5222   0.09372   0.08624  -0.0478  0.0692  1.0001  -5.6589   0.0000   0.0000   0.0000   0.2507
  17.750   1.5147   0.09785   0.09066  -0.0478  0.0675  1.0001  -5.6837   0.0000   0.0000   0.0000   0.2503
  18.000   1.5359   0.09885   0.09155  -0.0470  0.0646  1.0001  -5.8748   0.0000   0.0000   0.0000   0.2489
  18.250   1.5149   0.10446   0.09755  -0.0478  0.0639  1.0001  -5.8295   0.0000   0.0000   0.0000   0.2492
  18.500   1.4950   0.11025   0.10369  -0.0491  0.0632  1.0001  -5.7861   0.0000   0.0000   0.0000   0.2499
  18.750   1.4758   0.11626   0.11000  -0.0509  0.0625  1.0001  -5.7417   0.0000   0.0000   0.0000   0.2509
  19.000   1.4565   0.12257   0.11660  -0.0532  0.0620  1.0001  -5.6908   0.0000   0.0000   0.0000   0.2523
  19.250   1.4340   0.12974   0.12405  -0.0563  0.0616  1.0001  -5.6112   0.0000   0.0000   0.0000   0.2545
  19.500   1.4006   0.13935   0.13399  -0.0614  0.0620  1.0001  -5.4434   0.0000   0.0000   0.0000   0.2585
  19.750   1.3575   0.15184   0.14682  -0.0690  0.0629  1.0001  -5.1820   0.0000   0.0000   0.0000   0.2650
  20.000   1.3145   0.16579   0.16101  -0.0780  0.0641  1.0001  -4.8821   0.0000   0.0000   0.0000   0.2732


