xflr5 v6.61

 Calculated polar for: QX0026 thickness=13.65

 1 1 Reynolds number fixed          Mach number fixed         

 xtrf =   1.000 (top)        1.000 (bottom)
 Mach =   0.000     Re =     0.520 e 6     Ncrit =   9.000

  alpha     CL        CD       CDp       Cm    Top Xtr Bot Xtr   Cpmin    Chinge    XCp    
 ------- -------- --------- --------- -------- ------- ------- -------- --------- ---------
 -10.000  -0.3965   0.04015   0.03683  -0.1222  0.8310  0.0228  -5.2999   0.0000   0.0000   0.0000  -0.0792
  -9.750  -0.4151   0.03106   0.02693  -0.1291  0.8252  0.0229  -5.6439   0.0000   0.0000   0.0000  -0.0809
  -9.500  -0.4059   0.02727   0.02250  -0.1305  0.8215  0.0234  -5.6745   0.0000   0.0000   0.0000  -0.0912
  -9.250  -0.3874   0.02518   0.02027  -0.1309  0.8177  0.0239  -5.5299   0.0000   0.0000   0.0000  -0.1079
  -9.000  -0.3639   0.02431   0.01932  -0.1311  0.8141  0.0244  -5.3199   0.0000   0.0000   0.0000  -0.1308
  -8.750  -0.3405   0.02326   0.01812  -0.1313  0.8111  0.0249  -5.1339   0.0000   0.0000   0.0000  -0.1567
  -8.500  -0.3176   0.02186   0.01650  -0.1315  0.8074  0.0255  -4.9811   0.0000   0.0000   0.0000  -0.1857
  -8.250  -0.2940   0.02047   0.01483  -0.1316  0.8042  0.0262  -4.8349   0.0000   0.0000   0.0000  -0.2201
  -8.000  -0.2692   0.01935   0.01341  -0.1316  0.8015  0.0269  -4.6787   0.0000   0.0000   0.0000  -0.2625
  -7.750  -0.2448   0.01807   0.01194  -0.1317  0.7979  0.0276  -4.5178   0.0000   0.0000   0.0000  -0.3130
  -7.500  -0.2186   0.01741   0.01126  -0.1318  0.7949  0.0284  -4.3082   0.0000   0.0000   0.0000  -0.3798
  -7.000  -0.1647   0.01637   0.01001  -0.1320  0.7890  0.0305  -3.9095   0.0000   0.0000   0.0000  -0.5838
  -6.750  -0.1373   0.01587   0.00933  -0.1320  0.7859  0.0314  -3.7441   0.0000   0.0000   0.0000  -0.7487
  -6.500  -0.1111   0.01498   0.00841  -0.1321  0.7834  0.0325  -3.5798   0.0000   0.0000   0.0000  -0.9824
  -6.250  -0.0838   0.01456   0.00797  -0.1322  0.7804  0.0336  -3.4004   0.0000   0.0000   0.0000  -1.3838
  -6.000  -0.0561   0.01416   0.00749  -0.1323  0.7773  0.0350  -3.2297   0.0000   0.0000   0.0000  -2.1852
  -5.750  -0.0287   0.01364   0.00689  -0.1323  0.7746  0.0366  -3.0636   0.0000   0.0000   0.0000  -4.5085
  -5.500  -0.0009   0.01331   0.00655  -0.1325  0.7721  0.0383  -2.8857   0.0000   0.0000   0.0000  -152.8052
  -5.250   0.0270   0.01299   0.00618  -0.1326  0.7688  0.0401  -2.7194   0.0000   0.0000   0.0000   5.3030
  -5.000   0.0545   0.01253   0.00570  -0.1327  0.7659  0.0420  -2.5585   0.0000   0.0000   0.0000   2.7490
  -4.750   0.0829   0.01228   0.00540  -0.1328  0.7635  0.0444  -2.4055   0.0000   0.0000   0.0000   1.8933
  -4.500   0.1107   0.01195   0.00507  -0.1330  0.7605  0.0472  -2.2595   0.0000   0.0000   0.0000   1.4798
  -4.250   0.1390   0.01172   0.00483  -0.1331  0.7573  0.0504  -2.1117   0.0000   0.0000   0.0000   1.2294
  -4.000   0.1672   0.01141   0.00451  -0.1333  0.7547  0.0540  -1.9678   0.0000   0.0000   0.0000   1.0636
  -3.750   0.1957   0.01118   0.00425  -0.1335  0.7520  0.0586  -1.8249   0.0000   0.0000   0.0000   0.9452
  -3.500   0.2238   0.01095   0.00405  -0.1336  0.7486  0.0643  -1.6889   0.0000   0.0000   0.0000   0.8575
  -3.250   0.2523   0.01073   0.00384  -0.1338  0.7456  0.0716  -1.5626   0.0000   0.0000   0.0000   0.7888
  -2.750   0.3092   0.01030   0.00350  -0.1342  0.7396  0.0995  -1.3155   0.0000   0.0000   0.0000   0.6897
  -2.500   0.3376   0.01005   0.00336  -0.1344  0.7364  0.1298  -1.1949   0.0000   0.0000   0.0000   0.6528
  -2.250   0.3662   0.00982   0.00325  -0.1347  0.7337  0.1736  -1.0837   0.0000   0.0000   0.0000   0.6216
  -2.000   0.3944   0.00963   0.00321  -0.1349  0.7304  0.2184  -0.9759   0.0000   0.0000   0.0000   0.5950
  -1.750   0.4227   0.00946   0.00317  -0.1351  0.7269  0.2610  -0.8700   0.0000   0.0000   0.0000   0.5719
  -1.500   0.4514   0.00931   0.00311  -0.1354  0.7240  0.3047  -0.7859   0.0000   0.0000   0.0000   0.5515
  -1.250   0.4798   0.00916   0.00309  -0.1356  0.7209  0.3533  -0.8038   0.0000   0.0000   0.0000   0.5336
  -1.000   0.5078   0.00898   0.00309  -0.1358  0.7171  0.4097  -0.8219   0.0000   0.0000   0.0000   0.5179
  -0.750   0.5361   0.00879   0.00307  -0.1360  0.7140  0.4794  -0.8407   0.0000   0.0000   0.0000   0.5036
  -0.500   0.5640   0.00859   0.00309  -0.1361  0.7108  0.5617  -0.8598   0.0000   0.0000   0.0000   0.4908
  -0.250   0.5907   0.00836   0.00316  -0.1359  0.7069  0.6551  -0.8787   0.0000   0.0000   0.0000   0.4792
   0.000   0.6175   0.00818   0.00319  -0.1356  0.7035  0.7381  -0.8983   0.0000   0.0000   0.0000   0.4683
   0.250   0.6427   0.00802   0.00323  -0.1348  0.7001  0.8116  -0.9175   0.0000   0.0000   0.0000   0.4581
   0.500   0.6641   0.00782   0.00327  -0.1330  0.6960  0.9042  -0.9352   0.0000   0.0000   0.0000   0.4482
   0.750   0.7054   0.00771   0.00316  -0.1357  0.6926  1.0001  -0.9644   0.0000   0.0000   0.0000   0.4400
   1.000   0.7334   0.00777   0.00318  -0.1358  0.6886  1.0001  -0.9866   0.0000   0.0000   0.0000   0.4324
   1.250   0.7615   0.00781   0.00319  -0.1359  0.6843  1.0001  -1.0096   0.0000   0.0000   0.0000   0.4254
   1.500   0.7903   0.00788   0.00317  -0.1361  0.6808  1.0001  -1.0337   0.0000   0.0000   0.0000   0.4188
   1.750   0.8178   0.00792   0.00322  -0.1361  0.6758  1.0001  -1.0574   0.0000   0.0000   0.0000   0.4127
   2.000   0.8462   0.00797   0.00322  -0.1362  0.6716  1.0001  -1.0827   0.0000   0.0000   0.0000   0.4069
   2.250   0.8739   0.00803   0.00327  -0.1363  0.6668  1.0001  -1.1083   0.0000   0.0000   0.0000   0.4015
   2.500   0.9019   0.00809   0.00329  -0.1363  0.6619  1.0001  -1.1350   0.0000   0.0000   0.0000   0.3965
   2.750   0.9296   0.00815   0.00335  -0.1364  0.6569  1.0001  -1.1624   0.0000   0.0000   0.0000   0.3917
   3.000   0.9573   0.00821   0.00338  -0.1364  0.6515  1.0001  -1.1909   0.0000   0.0000   0.0000   0.3871
   3.250   0.9848   0.00828   0.00344  -0.1364  0.6459  1.0001  -1.2204   0.0000   0.0000   0.0000   0.3828
   3.500   1.0122   0.00835   0.00349  -0.1363  0.6400  1.0001  -1.2512   0.0000   0.0000   0.0000   0.3787
   3.750   1.0393   0.00842   0.00357  -0.1363  0.6335  1.0001  -1.2831   0.0000   0.0000   0.0000   0.3748
   4.000   1.0667   0.00851   0.00362  -0.1362  0.6274  1.0001  -1.3168   0.0000   0.0000   0.0000   0.3711
   4.250   1.0933   0.00859   0.00373  -0.1361  0.6198  1.0001  -1.3516   0.0000   0.0000   0.0000   0.3675
   4.500   1.1199   0.00868   0.00382  -0.1359  0.6121  1.0001  -1.3885   0.0000   0.0000   0.0000   0.3641
   4.750   1.1463   0.00879   0.00391  -0.1357  0.6042  1.0001  -1.4274   0.0000   0.0000   0.0000   0.3608
   5.250   1.1981   0.00905   0.00415  -0.1351  0.5859  1.0001  -1.5126   0.0000   0.0000   0.0000   0.3545
   5.500   1.2234   0.00919   0.00429  -0.1347  0.5755  1.0001  -1.5608   0.0000   0.0000   0.0000   0.3515
   5.750   1.2483   0.00936   0.00445  -0.1343  0.5643  1.0001  -1.6173   0.0000   0.0000   0.0000   0.3486
   6.000   1.2726   0.00956   0.00463  -0.1337  0.5521  1.0001  -1.6898   0.0000   0.0000   0.0000   0.3457
   6.250   1.2963   0.00977   0.00482  -0.1331  0.5382  1.0001  -1.7694   0.0000   0.0000   0.0000   0.3430
   6.500   1.3190   0.01003   0.00505  -0.1323  0.5230  1.0001  -1.8525   0.0000   0.0000   0.0000   0.3402
   6.750   1.3406   0.01034   0.00531  -0.1312  0.5065  1.0001  -1.9388   0.0000   0.0000   0.0000   0.3375
   7.000   1.3608   0.01070   0.00560  -0.1300  0.4883  1.0001  -2.0290   0.0000   0.0000   0.0000   0.3347
   7.250   1.3801   0.01110   0.00594  -0.1286  0.4692  1.0001  -2.1252   0.0000   0.0000   0.0000   0.3320
   7.500   1.3981   0.01154   0.00632  -0.1271  0.4505  1.0001  -2.2266   0.0000   0.0000   0.0000   0.3293
   8.000   1.4304   0.01250   0.00716  -0.1233  0.4144  1.0001  -2.4345   0.0000   0.0000   0.0000   0.3239
   8.250   1.4434   0.01304   0.00765  -0.1209  0.3971  1.0001  -2.5358   0.0000   0.0000   0.0000   0.3210
   8.500   1.4557   0.01366   0.00821  -0.1185  0.3792  1.0001  -2.6364   0.0000   0.0000   0.0000   0.3183
   8.750   1.4679   0.01434   0.00883  -0.1162  0.3607  1.0001  -2.7444   0.0000   0.0000   0.0000   0.3157
   9.000   1.4789   0.01512   0.00955  -0.1139  0.3420  1.0001  -2.8504   0.0000   0.0000   0.0000   0.3131
   9.250   1.4889   0.01601   0.01038  -0.1115  0.3227  1.0001  -2.9547   0.0000   0.0000   0.0000   0.3106
   9.500   1.4980   0.01701   0.01130  -0.1093  0.3030  1.0001  -3.0575   0.0000   0.0000   0.0000   0.3082
   9.750   1.5064   0.01811   0.01233  -0.1070  0.2830  1.0001  -3.1599   0.0000   0.0000   0.0000   0.3058
  10.000   1.5140   0.01933   0.01346  -0.1048  0.2627  1.0001  -3.2667   0.0000   0.0000   0.0000   0.3036
  10.250   1.5209   0.02064   0.01470  -0.1027  0.2427  1.0001  -3.3721   0.0000   0.0000   0.0000   0.3014
  10.500   1.5270   0.02204   0.01602  -0.1005  0.2229  1.0001  -3.4760   0.0000   0.0000   0.0000   0.2992
  10.750   1.5322   0.02355   0.01744  -0.0984  0.2035  1.0001  -3.5777   0.0000   0.0000   0.0000   0.2972
  11.000   1.5367   0.02514   0.01895  -0.0963  0.1849  1.0001  -3.6778   0.0000   0.0000   0.0000   0.2951
  11.250   1.5410   0.02679   0.02052  -0.0942  0.1667  1.0001  -3.7776   0.0000   0.0000   0.0000   0.2931
  11.500   1.5447   0.02850   0.02216  -0.0922  0.1495  1.0001  -3.8797   0.0000   0.0000   0.0000   0.2912
  11.750   1.5479   0.03028   0.02387  -0.0902  0.1335  1.0001  -3.9839   0.0000   0.0000   0.0000   0.2893
  12.000   1.5507   0.03213   0.02566  -0.0883  0.1188  1.0001  -4.0869   0.0000   0.0000   0.0000   0.2875
  12.250   1.5530   0.03404   0.02752  -0.0864  0.1054  1.0001  -4.1885   0.0000   0.0000   0.0000   0.2857
  12.500   1.5551   0.03604   0.02946  -0.0846  0.0937  1.0001  -4.2899   0.0000   0.0000   0.0000   0.2839
  12.750   1.5578   0.03805   0.03144  -0.0829  0.0834  1.0001  -4.3936   0.0000   0.0000   0.0000   0.2823
  13.000   1.5602   0.04011   0.03350  -0.0814  0.0750  1.0001  -4.4968   0.0000   0.0000   0.0000   0.2807
  13.250   1.5632   0.04219   0.03558  -0.0799  0.0679  1.0001  -4.6022   0.0000   0.0000   0.0000   0.2791
  13.500   1.5659   0.04435   0.03775  -0.0786  0.0620  1.0001  -4.7144   0.0000   0.0000   0.0000   0.2777
  13.750   1.5686   0.04658   0.03999  -0.0773  0.0570  1.0001  -4.8268   0.0000   0.0000   0.0000   0.2763
  14.000   1.5708   0.04888   0.04232  -0.0761  0.0529  1.0001  -4.9375   0.0000   0.0000   0.0000   0.2749
  14.250   1.5716   0.05137   0.04483  -0.0750  0.0494  1.0001  -5.0427   0.0000   0.0000   0.0000   0.2736
  14.500   1.5748   0.05367   0.04718  -0.0740  0.0461  1.0001  -5.1586   0.0000   0.0000   0.0000   0.2723
  14.750   1.5761   0.05624   0.04980  -0.0731  0.0435  1.0001  -5.2657   0.0000   0.0000   0.0000   0.2712
  15.000   1.5769   0.05890   0.05251  -0.0722  0.0411  1.0001  -5.3711   0.0000   0.0000   0.0000   0.2700
  15.250   1.5774   0.06164   0.05531  -0.0715  0.0391  1.0001  -5.4742   0.0000   0.0000   0.0000   0.2690
  15.500   1.5777   0.06442   0.05816  -0.0708  0.0372  1.0001  -5.5836   0.0000   0.0000   0.0000   0.2680
  15.750   1.5752   0.06761   0.06140  -0.0702  0.0356  1.0001  -5.6800   0.0000   0.0000   0.0000   0.2671
  16.000   1.5768   0.07037   0.06425  -0.0697  0.0339  1.0001  -5.7975   0.0000   0.0000   0.0000   0.2661
  16.250   1.5741   0.07369   0.06763  -0.0693  0.0326  1.0001  -5.8939   0.0000   0.0000   0.0000   0.2654
  16.500   1.5711   0.07712   0.07113  -0.0690  0.0314  1.0001  -5.9860   0.0000   0.0000   0.0000   0.2647
  16.750   1.5707   0.08022   0.07433  -0.0688  0.0302  1.0001  -6.0928   0.0000   0.0000   0.0000   0.2640
  17.000   1.5680   0.08367   0.07785  -0.0687  0.0292  1.0001  -6.1877   0.0000   0.0000   0.0000   0.2634
  17.250   1.5606   0.08778   0.08201  -0.0688  0.0284  1.0001  -6.2551   0.0000   0.0000   0.0000   0.2630
  17.500   1.5579   0.09134   0.08568  -0.0689  0.0276  1.0001  -6.3457   0.0000   0.0000   0.0000   0.2626
  17.750   1.5561   0.09484   0.08928  -0.0691  0.0267  1.0001  -6.4414   0.0000   0.0000   0.0000   0.2622
  18.000   1.5531   0.09851   0.09304  -0.0695  0.0260  1.0001  -6.5318   0.0000   0.0000   0.0000   0.2619
  18.250   1.5476   0.10254   0.09713  -0.0700  0.0253  1.0001  -6.6072   0.0000   0.0000   0.0000   0.2617
  18.500   1.5380   0.10715   0.10179  -0.0707  0.0247  1.0001  -6.6542   0.0000   0.0000   0.0000   0.2618
  18.750   1.5370   0.11065   0.10541  -0.0713  0.0240  1.0001  -6.7591   0.0000   0.0000   0.0000   0.2616
  19.000   1.5343   0.11441   0.10928  -0.0720  0.0234  1.0001  -6.8534   0.0000   0.0000   0.0000   0.2616
  19.250   1.5311   0.11828   0.11324  -0.0729  0.0228  1.0001  -6.9435   0.0000   0.0000   0.0000   0.2616
  19.500   1.5272   0.12227   0.11729  -0.0740  0.0223  1.0001  -7.0288   0.0000   0.0000   0.0000   0.2618
  19.750   1.5221   0.12643   0.12151  -0.0752  0.0218  1.0001  -7.1034   0.0000   0.0000   0.0000   0.2621
  20.000   1.5160   0.13065   0.12576  -0.0764  0.0213  1.0001  -7.1670   0.0000   0.0000   0.0000   0.2624


