xflr5 v6.61

 Calculated polar for: QX0026 thickness=13.65

 1 1 Reynolds number fixed          Mach number fixed         

 xtrf =   1.000 (top)        1.000 (bottom)
 Mach =   0.000     Re =     0.460 e 6     Ncrit =   9.000

  alpha     CL        CD       CDp       Cm    Top Xtr Bot Xtr   Cpmin    Chinge    XCp    
 ------- -------- --------- --------- -------- ------- ------- -------- --------- ---------
  -9.500  -0.2869   0.05864   0.05559  -0.1008  0.8342  0.0272  -3.8263   0.0000   0.0000   0.0000  -0.1269
  -9.250  -0.3018   0.04665   0.04349  -0.1170  0.8289  0.0265  -4.1488   0.0000   0.0000   0.0000  -0.1613
  -9.000  -0.3378   0.03145   0.02724  -0.1302  0.8227  0.0261  -4.8223   0.0000   0.0000   0.0000  -0.1567
  -8.750  -0.3298   0.02650   0.02159  -0.1316  0.8189  0.0265  -4.9265   0.0000   0.0000   0.0000  -0.1704
  -8.500  -0.3116   0.02386   0.01842  -0.1320  0.8151  0.0270  -4.8820   0.0000   0.0000   0.0000  -0.1955
  -8.250  -0.2906   0.02175   0.01598  -0.1321  0.8121  0.0276  -4.7699   0.0000   0.0000   0.0000  -0.2274
  -8.000  -0.2659   0.02078   0.01496  -0.1323  0.8087  0.0282  -4.5765   0.0000   0.0000   0.0000  -0.2713
  -7.750  -0.2404   0.02000   0.01407  -0.1324  0.8053  0.0289  -4.3839   0.0000   0.0000   0.0000  -0.3260
  -7.500  -0.2145   0.01919   0.01308  -0.1325  0.8026  0.0299  -4.2028   0.0000   0.0000   0.0000  -0.3946
  -7.250  -0.1884   0.01838   0.01203  -0.1325  0.7994  0.0310  -4.0354   0.0000   0.0000   0.0000  -0.4829
  -7.000  -0.1628   0.01731   0.01082  -0.1325  0.7961  0.0320  -3.8676   0.0000   0.0000   0.0000  -0.5970
  -6.750  -0.1360   0.01671   0.01017  -0.1326  0.7934  0.0329  -3.6843   0.0000   0.0000   0.0000  -0.7631
  -6.500  -0.1089   0.01616   0.00954  -0.1327  0.7904  0.0341  -3.5172   0.0000   0.0000   0.0000  -1.0131
  -6.250  -0.0817   0.01561   0.00886  -0.1327  0.7872  0.0353  -3.3594   0.0000   0.0000   0.0000  -1.4324
  -6.000  -0.0547   0.01492   0.00810  -0.1328  0.7845  0.0367  -3.1990   0.0000   0.0000   0.0000  -2.2572
  -5.750  -0.0271   0.01457   0.00772  -0.1329  0.7819  0.0384  -3.0209   0.0000   0.0000   0.0000  -4.8171
  -5.500   0.0006   0.01420   0.00728  -0.1330  0.7785  0.0402  -2.8578   0.0000   0.0000   0.0000  226.3397
  -5.250   0.0278   0.01364   0.00670  -0.1330  0.7757  0.0419  -2.6987   0.0000   0.0000   0.0000   5.1725
  -5.000   0.0559   0.01331   0.00633  -0.1331  0.7733  0.0440  -2.5321   0.0000   0.0000   0.0000   2.6962
  -4.750   0.0835   0.01294   0.00592  -0.1332  0.7700  0.0466  -2.3901   0.0000   0.0000   0.0000   1.8868
  -4.500   0.1114   0.01265   0.00564  -0.1333  0.7669  0.0495  -2.2412   0.0000   0.0000   0.0000   1.4762
  -4.250   0.1395   0.01230   0.00526  -0.1335  0.7643  0.0527  -2.0998   0.0000   0.0000   0.0000   1.2286
  -4.000   0.1678   0.01209   0.00501  -0.1336  0.7615  0.0566  -1.9568   0.0000   0.0000   0.0000   1.0630
  -3.750   0.1956   0.01179   0.00475  -0.1337  0.7581  0.0614  -1.8162   0.0000   0.0000   0.0000   0.9470
  -3.500   0.2240   0.01154   0.00449  -0.1339  0.7552  0.0674  -1.6813   0.0000   0.0000   0.0000   0.8586
  -3.250   0.2528   0.01132   0.00424  -0.1341  0.7528  0.0752  -1.5563   0.0000   0.0000   0.0000   0.7893
  -3.000   0.2806   0.01107   0.00408  -0.1342  0.7491  0.0865  -1.4345   0.0000   0.0000   0.0000   0.7356
  -2.750   0.3089   0.01082   0.00389  -0.1344  0.7460  0.1050  -1.3136   0.0000   0.0000   0.0000   0.6910
  -2.500   0.3376   0.01055   0.00373  -0.1347  0.7434  0.1389  -1.1929   0.0000   0.0000   0.0000   0.6538
  -2.250   0.3654   0.01032   0.00367  -0.1349  0.7399  0.1856  -1.0840   0.0000   0.0000   0.0000   0.6230
  -2.000   0.3936   0.01012   0.00361  -0.1351  0.7365  0.2323  -0.9764   0.0000   0.0000   0.0000   0.5963
  -1.750   0.4224   0.00995   0.00354  -0.1354  0.7337  0.2769  -0.8698   0.0000   0.0000   0.0000   0.5728
  -1.500   0.4505   0.00980   0.00352  -0.1356  0.7304  0.3228  -0.7843   0.0000   0.0000   0.0000   0.5526
  -1.250   0.4786   0.00962   0.00350  -0.1358  0.7268  0.3750  -0.8020   0.0000   0.0000   0.0000   0.5347
  -1.000   0.5071   0.00943   0.00346  -0.1360  0.7238  0.4379  -0.8206   0.0000   0.0000   0.0000   0.5187
  -0.750   0.5348   0.00923   0.00349  -0.1361  0.7205  0.5148  -0.8390   0.0000   0.0000   0.0000   0.5045
  -0.500   0.5618   0.00901   0.00354  -0.1360  0.7166  0.6028  -0.8576   0.0000   0.0000   0.0000   0.4916
  -0.250   0.5887   0.00879   0.00356  -0.1357  0.7135  0.6978  -0.8768   0.0000   0.0000   0.0000   0.4797
   0.000   0.6142   0.00862   0.00362  -0.1351  0.7099  0.7758  -0.8956   0.0000   0.0000   0.0000   0.4687
   0.250   0.6368   0.00842   0.00366  -0.1336  0.7060  0.8582  -0.9135   0.0000   0.0000   0.0000   0.4582
   0.500   0.6699   0.00824   0.00357  -0.1342  0.7028  0.9685  -0.9378   0.0000   0.0000   0.0000   0.4483
   0.750   0.7041   0.00826   0.00356  -0.1357  0.6987  1.0001  -0.9627   0.0000   0.0000   0.0000   0.4403
   1.000   0.7322   0.00831   0.00356  -0.1358  0.6946  1.0001  -0.9851   0.0000   0.0000   0.0000   0.4327
   1.500   0.7885   0.00842   0.00358  -0.1360  0.6864  1.0001  -1.0316   0.0000   0.0000   0.0000   0.4191
   1.750   0.8170   0.00846   0.00356  -0.1361  0.6824  1.0001  -1.0562   0.0000   0.0000   0.0000   0.4129
   2.000   0.8447   0.00852   0.00361  -0.1362  0.6778  1.0001  -1.0810   0.0000   0.0000   0.0000   0.4072
   2.250   0.8727   0.00857   0.00363  -0.1362  0.6731  1.0001  -1.1068   0.0000   0.0000   0.0000   0.4017
   2.500   0.9008   0.00863   0.00365  -0.1363  0.6686  1.0001  -1.1335   0.0000   0.0000   0.0000   0.3966
   2.750   0.9282   0.00869   0.00371  -0.1363  0.6632  1.0001  -1.1607   0.0000   0.0000   0.0000   0.3918
   3.000   0.9562   0.00875   0.00373  -0.1364  0.6584  1.0001  -1.1894   0.0000   0.0000   0.0000   0.3873
   3.250   0.9834   0.00881   0.00379  -0.1363  0.6524  1.0001  -1.2187   0.0000   0.0000   0.0000   0.3829
   3.500   1.0109   0.00888   0.00385  -0.1363  0.6469  1.0001  -1.2495   0.0000   0.0000   0.0000   0.3788
   3.750   1.0380   0.00894   0.00391  -0.1362  0.6406  1.0001  -1.2814   0.0000   0.0000   0.0000   0.3749
   4.000   1.0649   0.00902   0.00399  -0.1360  0.6340  1.0001  -1.3148   0.0000   0.0000   0.0000   0.3711
   4.250   1.0922   0.00910   0.00404  -0.1360  0.6276  1.0001  -1.3501   0.0000   0.0000   0.0000   0.3676
   4.500   1.1184   0.00918   0.00414  -0.1357  0.6197  1.0001  -1.3866   0.0000   0.0000   0.0000   0.3641
   4.750   1.1446   0.00928   0.00425  -0.1355  0.6117  1.0001  -1.4252   0.0000   0.0000   0.0000   0.3608
   5.000   1.1708   0.00939   0.00435  -0.1352  0.6034  1.0001  -1.4663   0.0000   0.0000   0.0000   0.3576
   5.250   1.1965   0.00952   0.00446  -0.1349  0.5945  1.0001  -1.5104   0.0000   0.0000   0.0000   0.3545
   5.500   1.2219   0.00966   0.00459  -0.1345  0.5847  1.0001  -1.5585   0.0000   0.0000   0.0000   0.3515
   5.750   1.2467   0.00982   0.00475  -0.1341  0.5740  1.0001  -1.6145   0.0000   0.0000   0.0000   0.3486
   6.000   1.2711   0.00999   0.00492  -0.1335  0.5622  1.0001  -1.6866   0.0000   0.0000   0.0000   0.3457
   6.250   1.2948   0.01019   0.00511  -0.1328  0.5493  1.0001  -1.7659   0.0000   0.0000   0.0000   0.3429
   6.500   1.3177   0.01042   0.00532  -0.1320  0.5350  1.0001  -1.8492   0.0000   0.0000   0.0000   0.3402
   7.000   1.3602   0.01103   0.00584  -0.1299  0.5022  1.0001  -2.0267   0.0000   0.0000   0.0000   0.3347
   7.250   1.3794   0.01141   0.00617  -0.1285  0.4840  1.0001  -2.1225   0.0000   0.0000   0.0000   0.3320
   7.750   1.4144   0.01231   0.00694  -0.1251  0.4467  1.0001  -2.3253   0.0000   0.0000   0.0000   0.3266
   8.000   1.4299   0.01280   0.00738  -0.1232  0.4289  1.0001  -2.4312   0.0000   0.0000   0.0000   0.3238
   8.250   1.4422   0.01334   0.00787  -0.1206  0.4117  1.0001  -2.5306   0.0000   0.0000   0.0000   0.3209
   8.500   1.4549   0.01393   0.00841  -0.1182  0.3939  1.0001  -2.6323   0.0000   0.0000   0.0000   0.3182
   8.750   1.4663   0.01462   0.00904  -0.1158  0.3761  1.0001  -2.7374   0.0000   0.0000   0.0000   0.3155
   9.250   1.4867   0.01628   0.01059  -0.1110  0.3387  1.0001  -2.9459   0.0000   0.0000   0.0000   0.3103
   9.500   1.4957   0.01727   0.01151  -0.1087  0.3193  1.0001  -3.0485   0.0000   0.0000   0.0000   0.3079
   9.750   1.5039   0.01837   0.01255  -0.1064  0.2996  1.0001  -3.1494   0.0000   0.0000   0.0000   0.3056
  10.000   1.5113   0.01959   0.01369  -0.1042  0.2796  1.0001  -3.2550   0.0000   0.0000   0.0000   0.3033
  10.250   1.5177   0.02092   0.01495  -0.1020  0.2596  1.0001  -3.3588   0.0000   0.0000   0.0000   0.3011
  10.500   1.5234   0.02235   0.01630  -0.0998  0.2396  1.0001  -3.4610   0.0000   0.0000   0.0000   0.2989
  10.750   1.5282   0.02388   0.01775  -0.0977  0.2202  1.0001  -3.5614   0.0000   0.0000   0.0000   0.2968
  11.000   1.5326   0.02548   0.01927  -0.0955  0.2009  1.0001  -3.6607   0.0000   0.0000   0.0000   0.2948
  11.250   1.5366   0.02715   0.02087  -0.0935  0.1821  1.0001  -3.7591   0.0000   0.0000   0.0000   0.2928
  11.500   1.5397   0.02892   0.02256  -0.0914  0.1641  1.0001  -3.8578   0.0000   0.0000   0.0000   0.2909
  11.750   1.5423   0.03076   0.02432  -0.0894  0.1469  1.0001  -3.9591   0.0000   0.0000   0.0000   0.2890
  12.000   1.5443   0.03267   0.02617  -0.0874  0.1311  1.0001  -4.0589   0.0000   0.0000   0.0000   0.2872
  12.250   1.5460   0.03464   0.02808  -0.0855  0.1166  1.0001  -4.1579   0.0000   0.0000   0.0000   0.2854
  12.500   1.5477   0.03669   0.03008  -0.0837  0.1034  1.0001  -4.2570   0.0000   0.0000   0.0000   0.2836
  12.750   1.5493   0.03880   0.03215  -0.0820  0.0920  1.0001  -4.3558   0.0000   0.0000   0.0000   0.2820
  13.000   1.5504   0.04100   0.03432  -0.0804  0.0824  1.0001  -4.4530   0.0000   0.0000   0.0000   0.2804
  13.250   1.5526   0.04318   0.03650  -0.0790  0.0742  1.0001  -4.5543   0.0000   0.0000   0.0000   0.2789
  13.500   1.5546   0.04543   0.03875  -0.0776  0.0675  1.0001  -4.6599   0.0000   0.0000   0.0000   0.2774
  13.750   1.5564   0.04776   0.04109  -0.0764  0.0620  1.0001  -4.7674   0.0000   0.0000   0.0000   0.2760
  14.000   1.5578   0.05015   0.04352  -0.0752  0.0574  1.0001  -4.8734   0.0000   0.0000   0.0000   0.2747
  14.250   1.5585   0.05269   0.04608  -0.0741  0.0535  1.0001  -4.9765   0.0000   0.0000   0.0000   0.2734
  14.500   1.5594   0.05527   0.04869  -0.0731  0.0500  1.0001  -5.0807   0.0000   0.0000   0.0000   0.2722
  14.750   1.5612   0.05781   0.05130  -0.0722  0.0469  1.0001  -5.1883   0.0000   0.0000   0.0000   0.2710
  15.000   1.5594   0.06079   0.05430  -0.0713  0.0445  1.0001  -5.2803   0.0000   0.0000   0.0000   0.2700
  15.250   1.5613   0.06339   0.05699  -0.0706  0.0421  1.0001  -5.3886   0.0000   0.0000   0.0000   0.2689
  15.500   1.5571   0.06674   0.06037  -0.0699  0.0403  1.0001  -5.4691   0.0000   0.0000   0.0000   0.2680
  15.750   1.5592   0.06943   0.06317  -0.0695  0.0383  1.0001  -5.5861   0.0000   0.0000   0.0000   0.2671
  16.000   1.5570   0.07269   0.06648  -0.0690  0.0368  1.0001  -5.6828   0.0000   0.0000   0.0000   0.2663
  16.250   1.5540   0.07610   0.06996  -0.0687  0.0353  1.0001  -5.7734   0.0000   0.0000   0.0000   0.2656
  16.500   1.5538   0.07918   0.07314  -0.0685  0.0338  1.0001  -5.8793   0.0000   0.0000   0.0000   0.2648
  16.750   1.5500   0.08275   0.07676  -0.0683  0.0327  1.0001  -5.9671   0.0000   0.0000   0.0000   0.2643
  17.000   1.5445   0.08659   0.08068  -0.0683  0.0317  1.0001  -6.0424   0.0000   0.0000   0.0000   0.2638
  17.250   1.5436   0.08991   0.08410  -0.0684  0.0306  1.0001  -6.1422   0.0000   0.0000   0.0000   0.2633
  17.500   1.5410   0.09349   0.08776  -0.0686  0.0296  1.0001  -6.2331   0.0000   0.0000   0.0000   0.2629
  17.750   1.5360   0.09742   0.09175  -0.0689  0.0288  1.0001  -6.3105   0.0000   0.0000   0.0000   0.2626
  18.000   1.5290   0.10160   0.09599  -0.0693  0.0281  1.0001  -6.3722   0.0000   0.0000   0.0000   0.2625
  18.250   1.5276   0.10508   0.09960  -0.0698  0.0273  1.0001  -6.4652   0.0000   0.0000   0.0000   0.2622
  18.500   1.5251   0.10876   0.10337  -0.0704  0.0265  1.0001  -6.5524   0.0000   0.0000   0.0000   0.2620
  18.750   1.5221   0.11254   0.10723  -0.0711  0.0258  1.0001  -6.6429   0.0000   0.0000   0.0000   0.2620
  19.000   1.5175   0.11654   0.11127  -0.0719  0.0251  1.0001  -6.7249   0.0000   0.0000   0.0000   0.2621
  19.250   1.5128   0.12051   0.11530  -0.0728  0.0245  1.0001  -6.8010   0.0000   0.0000   0.0000   0.2621
  19.500   1.5114   0.12419   0.11910  -0.0738  0.0239  1.0001  -6.8962   0.0000   0.0000   0.0000   0.2622
  19.750   1.5094   0.12791   0.12292  -0.0749  0.0233  1.0001  -6.9882   0.0000   0.0000   0.0000   0.2623
  20.000   1.5073   0.13164   0.12673  -0.0761  0.0227  1.0001  -7.0790   0.0000   0.0000   0.0000   0.2625


