xflr5 v6.61

 Calculated polar for: QX0026 thickness=13.65

 1 1 Reynolds number fixed          Mach number fixed         

 xtrf =   1.000 (top)        1.000 (bottom)
 Mach =   0.000     Re =     0.560 e 6     Ncrit =   9.000

  alpha     CL        CD       CDp       Cm    Top Xtr Bot Xtr   Cpmin    Chinge    XCp    
 ------- -------- --------- --------- -------- ------- ------- -------- --------- ---------
 -10.000  -0.1881   0.09511   0.09216  -0.0751  0.8297  0.0301  -1.9315   0.0000   0.0000   0.0000  -0.1844
  -9.500  -0.4098   0.02617   0.02157  -0.1302  0.8165  0.0226  -5.7221   0.0000   0.0000   0.0000  -0.0874
  -9.250  -0.3908   0.02417   0.01912  -0.1306  0.8130  0.0232  -5.6236   0.0000   0.0000   0.0000  -0.1042
  -9.000  -0.3715   0.02195   0.01663  -0.1309  0.8096  0.0238  -5.5053   0.0000   0.0000   0.0000  -0.1225
  -8.750  -0.3474   0.02098   0.01557  -0.1311  0.8060  0.0242  -5.3019   0.0000   0.0000   0.0000  -0.1479
  -8.500  -0.3225   0.02016   0.01463  -0.1312  0.8031  0.0248  -5.0986   0.0000   0.0000   0.0000  -0.1782
  -8.250  -0.2972   0.01932   0.01366  -0.1313  0.8000  0.0254  -4.9042   0.0000   0.0000   0.0000  -0.2140
  -8.000  -0.2718   0.01841   0.01257  -0.1314  0.7966  0.0261  -4.7225   0.0000   0.0000   0.0000  -0.2567
  -7.750  -0.2458   0.01761   0.01155  -0.1314  0.7937  0.0269  -4.5415   0.0000   0.0000   0.0000  -0.3094
  -7.500  -0.2203   0.01661   0.01039  -0.1314  0.7909  0.0276  -4.3638   0.0000   0.0000   0.0000  -0.3733
  -7.250  -0.1936   0.01607   0.00986  -0.1316  0.7876  0.0285  -4.1501   0.0000   0.0000   0.0000  -0.4585
  -7.000  -0.1663   0.01564   0.00935  -0.1317  0.7848  0.0296  -3.9433   0.0000   0.0000   0.0000  -0.5738
  -6.750  -0.1390   0.01515   0.00872  -0.1317  0.7822  0.0306  -3.7711   0.0000   0.0000   0.0000  -0.7346
  -6.500  -0.1118   0.01460   0.00807  -0.1318  0.7790  0.0315  -3.6059   0.0000   0.0000   0.0000  -0.9730
  -6.250  -0.0850   0.01396   0.00742  -0.1319  0.7761  0.0327  -3.4310   0.0000   0.0000   0.0000  -1.3560
  -6.000  -0.0572   0.01361   0.00702  -0.1320  0.7736  0.0340  -3.2505   0.0000   0.0000   0.0000  -2.1362
  -5.750  -0.0292   0.01332   0.00665  -0.1321  0.7707  0.0356  -3.0761   0.0000   0.0000   0.0000  -4.4233
  -5.500  -0.0019   0.01281   0.00613  -0.1322  0.7676  0.0372  -2.9066   0.0000   0.0000   0.0000  -70.2677
  -5.250   0.0262   0.01252   0.00581  -0.1324  0.7649  0.0390  -2.7324   0.0000   0.0000   0.0000   5.4464
  -5.000   0.0545   0.01224   0.00544  -0.1325  0.7625  0.0409  -2.5693   0.0000   0.0000   0.0000   2.7460
  -4.750   0.0821   0.01185   0.00510  -0.1326  0.7593  0.0431  -2.4181   0.0000   0.0000   0.0000   1.9066
  -4.500   0.1106   0.01166   0.00484  -0.1328  0.7563  0.0458  -2.2673   0.0000   0.0000   0.0000   1.4790
  -4.250   0.1388   0.01134   0.00452  -0.1329  0.7538  0.0491  -2.1185   0.0000   0.0000   0.0000   1.2293
  -4.000   0.1670   0.01107   0.00425  -0.1331  0.7509  0.0526  -1.9748   0.0000   0.0000   0.0000   1.0636
  -3.750   0.1954   0.01089   0.00405  -0.1333  0.7476  0.0569  -1.8300   0.0000   0.0000   0.0000   0.9449
  -3.500   0.2240   0.01066   0.00382  -0.1335  0.7448  0.0626  -1.6920   0.0000   0.0000   0.0000   0.8564
  -3.250   0.2526   0.01045   0.00360  -0.1337  0.7423  0.0697  -1.5650   0.0000   0.0000   0.0000   0.7877
  -3.000   0.2808   0.01023   0.00345  -0.1338  0.7388  0.0799  -1.4401   0.0000   0.0000   0.0000   0.7336
  -2.750   0.3094   0.01001   0.00328  -0.1340  0.7357  0.0964  -1.3167   0.0000   0.0000   0.0000   0.6890
  -2.500   0.3381   0.00978   0.00313  -0.1343  0.7331  0.1250  -1.1947   0.0000   0.0000   0.0000   0.6519
  -2.250   0.3662   0.00955   0.00306  -0.1345  0.7297  0.1662  -1.0845   0.0000   0.0000   0.0000   0.6211
  -2.000   0.3946   0.00935   0.00300  -0.1348  0.7263  0.2101  -0.9762   0.0000   0.0000   0.0000   0.5945
  -1.750   0.4233   0.00920   0.00293  -0.1351  0.7235  0.2522  -0.8692   0.0000   0.0000   0.0000   0.5712
  -1.500   0.4517   0.00905   0.00291  -0.1353  0.7203  0.2942  -0.7865   0.0000   0.0000   0.0000   0.5510
  -1.250   0.4800   0.00890   0.00289  -0.1355  0.7167  0.3405  -0.8044   0.0000   0.0000   0.0000   0.5332
  -1.000   0.5086   0.00873   0.00285  -0.1358  0.7136  0.3942  -0.8229   0.0000   0.0000   0.0000   0.5173
  -0.750   0.5368   0.00856   0.00286  -0.1359  0.7104  0.4591  -0.8416   0.0000   0.0000   0.0000   0.5032
  -0.500   0.5645   0.00835   0.00289  -0.1360  0.7066  0.5374  -0.8605   0.0000   0.0000   0.0000   0.4905
  -0.250   0.5922   0.00813   0.00291  -0.1360  0.7034  0.6281  -0.8800   0.0000   0.0000   0.0000   0.4788
   0.000   0.6190   0.00796   0.00297  -0.1358  0.7000  0.7159  -0.8995   0.0000   0.0000   0.0000   0.4680
   0.250   0.6448   0.00779   0.00302  -0.1352  0.6960  0.7869  -0.9190   0.0000   0.0000   0.0000   0.4580
   0.500   0.6680   0.00760   0.00304  -0.1339  0.6926  0.8701  -0.9378   0.0000   0.0000   0.0000   0.4484
   0.750   0.7024   0.00744   0.00300  -0.1349  0.6888  0.9821  -0.9632   0.0000   0.0000   0.0000   0.4397
   1.000   0.7339   0.00747   0.00299  -0.1358  0.6846  1.0001  -0.9873   0.0000   0.0000   0.0000   0.4322
   1.250   0.7626   0.00753   0.00297  -0.1360  0.6811  1.0001  -1.0107   0.0000   0.0000   0.0000   0.4252
   1.500   0.7903   0.00757   0.00301  -0.1360  0.6764  1.0001  -1.0339   0.0000   0.0000   0.0000   0.4187
   1.750   0.8186   0.00762   0.00301  -0.1361  0.6722  1.0001  -1.0584   0.0000   0.0000   0.0000   0.4126
   2.000   0.8466   0.00768   0.00305  -0.1362  0.6677  1.0001  -1.0834   0.0000   0.0000   0.0000   0.4068
   2.250   0.8745   0.00773   0.00308  -0.1363  0.6628  1.0001  -1.1091   0.0000   0.0000   0.0000   0.4014
   2.500   0.9026   0.00780   0.00310  -0.1364  0.6583  1.0001  -1.1359   0.0000   0.0000   0.0000   0.3964
   2.750   0.9302   0.00785   0.00316  -0.1364  0.6528  1.0001  -1.1632   0.0000   0.0000   0.0000   0.3916
   3.000   0.9581   0.00793   0.00320  -0.1365  0.6478  1.0001  -1.1918   0.0000   0.0000   0.0000   0.3871
   3.250   0.9855   0.00798   0.00326  -0.1364  0.6417  1.0001  -1.2212   0.0000   0.0000   0.0000   0.3828
   3.500   1.0130   0.00806   0.00332  -0.1364  0.6359  1.0001  -1.2521   0.0000   0.0000   0.0000   0.3787
   3.750   1.0402   0.00814   0.00338  -0.1364  0.6295  1.0001  -1.2841   0.0000   0.0000   0.0000   0.3748
   4.000   1.0672   0.00822   0.00347  -0.1363  0.6225  1.0001  -1.3176   0.0000   0.0000   0.0000   0.3711
   4.250   1.0942   0.00832   0.00355  -0.1362  0.6156  1.0001  -1.3527   0.0000   0.0000   0.0000   0.3675
   4.500   1.1208   0.00842   0.00364  -0.1360  0.6077  1.0001  -1.3896   0.0000   0.0000   0.0000   0.3641
   4.750   1.1472   0.00852   0.00375  -0.1358  0.5991  1.0001  -1.4285   0.0000   0.0000   0.0000   0.3608
   5.000   1.1734   0.00865   0.00387  -0.1356  0.5901  1.0001  -1.4697   0.0000   0.0000   0.0000   0.3576
   5.250   1.1991   0.00879   0.00400  -0.1353  0.5804  1.0001  -1.5139   0.0000   0.0000   0.0000   0.3545
   5.500   1.2245   0.00894   0.00414  -0.1349  0.5699  1.0001  -1.5623   0.0000   0.0000   0.0000   0.3515
   5.750   1.2494   0.00911   0.00430  -0.1345  0.5582  1.0001  -1.6190   0.0000   0.0000   0.0000   0.3486
   6.000   1.2737   0.00931   0.00447  -0.1339  0.5453  1.0001  -1.6919   0.0000   0.0000   0.0000   0.3458
   6.250   1.2970   0.00956   0.00467  -0.1332  0.5313  1.0001  -1.7710   0.0000   0.0000   0.0000   0.3430
   6.500   1.3198   0.00982   0.00491  -0.1324  0.5154  1.0001  -1.8544   0.0000   0.0000   0.0000   0.3403
   6.750   1.3409   0.01016   0.00518  -0.1313  0.4983  1.0001  -1.9401   0.0000   0.0000   0.0000   0.3375
   7.000   1.3613   0.01052   0.00548  -0.1301  0.4794  1.0001  -2.0308   0.0000   0.0000   0.0000   0.3348
   7.250   1.3805   0.01093   0.00583  -0.1287  0.4603  1.0001  -2.1269   0.0000   0.0000   0.0000   0.3321
   7.500   1.3985   0.01139   0.00621  -0.1272  0.4417  1.0001  -2.2283   0.0000   0.0000   0.0000   0.3294
   7.750   1.4158   0.01185   0.00661  -0.1255  0.4234  1.0001  -2.3317   0.0000   0.0000   0.0000   0.3267
   8.000   1.4311   0.01233   0.00703  -0.1235  0.4056  1.0001  -2.4372   0.0000   0.0000   0.0000   0.3240
   8.250   1.4440   0.01288   0.00753  -0.1210  0.3882  1.0001  -2.5384   0.0000   0.0000   0.0000   0.3211
   8.500   1.4570   0.01349   0.00808  -0.1188  0.3700  1.0001  -2.6411   0.0000   0.0000   0.0000   0.3184
   8.750   1.4692   0.01418   0.00871  -0.1165  0.3513  1.0001  -2.7492   0.0000   0.0000   0.0000   0.3158
   9.000   1.4802   0.01496   0.00943  -0.1142  0.3323  1.0001  -2.8554   0.0000   0.0000   0.0000   0.3132
   9.250   1.4903   0.01586   0.01025  -0.1119  0.3128  1.0001  -2.9601   0.0000   0.0000   0.0000   0.3107
   9.500   1.4995   0.01685   0.01117  -0.1096  0.2929  1.0001  -3.0634   0.0000   0.0000   0.0000   0.3083
   9.750   1.5081   0.01796   0.01219  -0.1074  0.2727  1.0001  -3.1669   0.0000   0.0000   0.0000   0.3060
  10.000   1.5158   0.01916   0.01332  -0.1052  0.2524  1.0001  -3.2742   0.0000   0.0000   0.0000   0.3037
  10.250   1.5229   0.02046   0.01454  -0.1030  0.2325  1.0001  -3.3803   0.0000   0.0000   0.0000   0.3015
  10.500   1.5291   0.02187   0.01586  -0.1009  0.2129  1.0001  -3.4846   0.0000   0.0000   0.0000   0.2994
  10.750   1.5345   0.02336   0.01726  -0.0988  0.1939  1.0001  -3.5871   0.0000   0.0000   0.0000   0.2973
  11.000   1.5394   0.02492   0.01874  -0.0967  0.1754  1.0001  -3.6885   0.0000   0.0000   0.0000   0.2953
  11.250   1.5440   0.02654   0.02028  -0.0947  0.1577  1.0001  -3.7898   0.0000   0.0000   0.0000   0.2933
  11.500   1.5480   0.02823   0.02190  -0.0926  0.1412  1.0001  -3.8939   0.0000   0.0000   0.0000   0.2914
  11.750   1.5515   0.02998   0.02359  -0.0907  0.1258  1.0001  -3.9994   0.0000   0.0000   0.0000   0.2895
  12.000   1.5546   0.03180   0.02535  -0.0887  0.1117  1.0001  -4.1039   0.0000   0.0000   0.0000   0.2876
  12.250   1.5573   0.03368   0.02717  -0.0869  0.0991  1.0001  -4.2072   0.0000   0.0000   0.0000   0.2858
  12.750   1.5634   0.03755   0.03099  -0.0835  0.0787  1.0001  -4.4180   0.0000   0.0000   0.0000   0.2824
  13.000   1.5662   0.03958   0.03300  -0.0819  0.0710  1.0001  -4.5230   0.0000   0.0000   0.0000   0.2808
  13.250   1.5691   0.04165   0.03507  -0.0805  0.0646  1.0001  -4.6302   0.0000   0.0000   0.0000   0.2793
  13.500   1.5723   0.04375   0.03718  -0.0791  0.0590  1.0001  -4.7451   0.0000   0.0000   0.0000   0.2778
  13.750   1.5749   0.04597   0.03941  -0.0778  0.0544  1.0001  -4.8581   0.0000   0.0000   0.0000   0.2764
  14.000   1.5785   0.04813   0.04160  -0.0767  0.0503  1.0001  -4.9758   0.0000   0.0000   0.0000   0.2750
  14.250   1.5816   0.05036   0.04389  -0.0756  0.0469  1.0001  -5.0918   0.0000   0.0000   0.0000   0.2737
  14.500   1.5830   0.05284   0.04639  -0.0745  0.0441  1.0001  -5.2003   0.0000   0.0000   0.0000   0.2724
  14.750   1.5855   0.05525   0.04885  -0.0736  0.0415  1.0001  -5.3142   0.0000   0.0000   0.0000   0.2712
  15.000   1.5865   0.05788   0.05154  -0.0728  0.0393  1.0001  -5.4207   0.0000   0.0000   0.0000   0.2701
  15.250   1.5881   0.06047   0.05419  -0.0720  0.0373  1.0001  -5.5315   0.0000   0.0000   0.0000   0.2690
  15.500   1.5867   0.06343   0.05720  -0.0712  0.0356  1.0001  -5.6349   0.0000   0.0000   0.0000   0.2680
  15.750   1.5888   0.06605   0.05991  -0.0707  0.0338  1.0001  -5.7564   0.0000   0.0000   0.0000   0.2670
  16.000   1.5864   0.06926   0.06316  -0.0701  0.0325  1.0001  -5.8554   0.0000   0.0000   0.0000   0.2661
  16.250   1.5856   0.07233   0.06631  -0.0697  0.0312  1.0001  -5.9613   0.0000   0.0000   0.0000   0.2653
  16.500   1.5859   0.07532   0.06939  -0.0694  0.0299  1.0001  -6.0733   0.0000   0.0000   0.0000   0.2645
  16.750   1.5826   0.07878   0.07291  -0.0691  0.0289  1.0001  -6.1669   0.0000   0.0000   0.0000   0.2639
  17.000   1.5758   0.08273   0.07693  -0.0690  0.0281  1.0001  -6.2387   0.0000   0.0000   0.0000   0.2633
  17.250   1.5755   0.08588   0.08019  -0.0689  0.0272  1.0001  -6.3461   0.0000   0.0000   0.0000   0.2627
  17.500   1.5736   0.08932   0.08372  -0.0690  0.0263  1.0001  -6.4448   0.0000   0.0000   0.0000   0.2622
  17.750   1.5697   0.09306   0.08753  -0.0692  0.0255  1.0001  -6.5330   0.0000   0.0000   0.0000   0.2619
  18.000   1.5615   0.09743   0.09196  -0.0696  0.0249  1.0001  -6.5936   0.0000   0.0000   0.0000   0.2617
  18.250   1.5577   0.10124   0.09587  -0.0701  0.0242  1.0001  -6.6766   0.0000   0.0000   0.0000   0.2615
  18.500   1.5553   0.10486   0.09959  -0.0706  0.0235  1.0001  -6.7738   0.0000   0.0000   0.0000   0.2612
  18.750   1.5518   0.10867   0.10350  -0.0712  0.0229  1.0001  -6.8669   0.0000   0.0000   0.0000   0.2611
  19.000   1.5474   0.11265   0.10756  -0.0720  0.0224  1.0001  -6.9540   0.0000   0.0000   0.0000   0.2611
  19.250   1.5411   0.11694   0.11192  -0.0730  0.0219  1.0001  -7.0259   0.0000   0.0000   0.0000   0.2613
  19.500   1.5321   0.12161   0.11664  -0.0741  0.0214  1.0001  -7.0755   0.0000   0.0000   0.0000   0.2617
  19.750   1.5296   0.12545   0.12059  -0.0752  0.0210  1.0001  -7.1660   0.0000   0.0000   0.0000   0.2618
  20.000   1.5269   0.12932   0.12457  -0.0763  0.0205  1.0001  -7.2544   0.0000   0.0000   0.0000   0.2620


