xflr5 v6.61

 Calculated polar for: QX0026 thickness=13.65

 1 1 Reynolds number fixed          Mach number fixed         

 xtrf =   1.000 (top)        1.000 (bottom)
 Mach =   0.000     Re =     0.180 e 6     Ncrit =   9.000

  alpha     CL        CD       CDp       Cm    Top Xtr Bot Xtr   Cpmin    Chinge    XCp    
 ------- -------- --------- --------- -------- ------- ------- -------- --------- ---------
 -10.000   0.0092   0.07611   0.07237  -0.1006  0.9075  0.0722  -1.1326   0.0000   0.0000   0.0000  11.6977
  -9.750   0.0003   0.07271   0.06897  -0.1025  0.9039  0.0751  -1.2197   0.0000   0.0000   0.0000  311.7004
  -9.500  -0.1259   0.09252   0.08865  -0.0992  0.9307  0.0694  -1.6899   0.0000   0.0000   0.0000  -0.5893
  -9.250  -0.1098   0.09036   0.08646  -0.0979  0.9256  0.0707  -1.5796   0.0000   0.0000   0.0000  -0.6982
  -9.000  -0.1023   0.08776   0.08385  -0.0987  0.9193  0.0728  -1.5572   0.0000   0.0000   0.0000  -0.7735
  -8.250  -0.0913   0.07862   0.07471  -0.1041  0.9005  0.0803  -1.6153   0.0000   0.0000   0.0000  -0.9495
  -7.750  -0.0851   0.07230   0.06838  -0.1082  0.8894  0.0853  -1.6515   0.0000   0.0000   0.0000  -1.0810
  -7.000  -0.1269   0.03658   0.03087  -0.1413  0.8669  0.0570  -2.9573   0.0000   0.0000   0.0000  -0.9040
  -6.750  -0.1044   0.03556   0.02999  -0.1411  0.8631  0.0582  -2.7889   0.0000   0.0000   0.0000  -1.1487
  -6.500  -0.0715   0.04129   0.03640  -0.1396  0.8596  0.0773  -2.2991   0.0000   0.0000   0.0000  -1.7657
  -6.000  -0.0460   0.02782   0.02094  -0.1410  0.8506  0.0594  -2.7045   0.0000   0.0000   0.0000  -2.9150
  -5.750  -0.0202   0.02600   0.01870  -0.1409  0.8480  0.0606  -2.6373   0.0000   0.0000   0.0000  -6.9597
  -5.500   0.0017   0.02490   0.01714  -0.1402  0.8428  0.0626  -2.5723   0.0000   0.0000   0.0000  86.9877
  -5.250   0.0286   0.02393   0.01619  -0.1403  0.8401  0.0654  -2.4318   0.0000   0.0000   0.0000   5.2961
  -5.000   0.0525   0.02320   0.01523  -0.1398  0.8356  0.0681  -2.3302   0.0000   0.0000   0.0000   2.9857
  -4.750   0.0790   0.02233   0.01426  -0.1397  0.8322  0.0708  -2.2107   0.0000   0.0000   0.0000   2.0653
  -4.500   0.1081   0.02170   0.01343  -0.1397  0.8300  0.0756  -2.0976   0.0000   0.0000   0.0000   1.5754
  -4.250   0.1300   0.02131   0.01315  -0.1391  0.8246  0.0796  -1.9877   0.0000   0.0000   0.0000   1.3458
  -4.000   0.1582   0.02065   0.01245  -0.1391  0.8220  0.0848  -1.8718   0.0000   0.0000   0.0000   1.1489
  -3.750   0.1820   0.02037   0.01218  -0.1386  0.8174  0.0914  -1.7611   0.0000   0.0000   0.0000   1.0276
  -3.500   0.2086   0.01993   0.01177  -0.1384  0.8139  0.0994  -1.6442   0.0000   0.0000   0.0000   0.9268
  -3.250   0.2380   0.01942   0.01126  -0.1386  0.8117  0.1114  -1.5319   0.0000   0.0000   0.0000   0.8429
  -3.000   0.2596   0.01932   0.01129  -0.1379  0.8060  0.1250  -1.4372   0.0000   0.0000   0.0000   0.7903
  -2.750   0.2883   0.01882   0.01091  -0.1381  0.8033  0.1506  -1.3286   0.0000   0.0000   0.0000   0.7365
  -2.500   0.3122   0.01860   0.01092  -0.1377  0.7987  0.1954  -1.2295   0.0000   0.0000   0.0000   0.6975
  -2.250   0.3388   0.01826   0.01085  -0.1378  0.7950  0.2645  -1.1262   0.0000   0.0000   0.0000   0.6618
  -2.000   0.3685   0.01785   0.01065  -0.1381  0.7928  0.3356  -1.0183   0.0000   0.0000   0.0000   0.6288
  -1.750   0.3898   0.01796   0.01100  -0.1374  0.7869  0.3990  -0.9279   0.0000   0.0000   0.0000   0.6058
  -1.250   0.4400   0.01754   0.01119  -0.1363  0.7793  0.5786  -0.7595   0.0000   0.0000   0.0000   0.5619
  -1.000   0.4629   0.01729   0.01130  -0.1349  0.7755  0.6919  -0.7755   0.0000   0.0000   0.0000   0.5430
  -0.750   0.4856   0.01687   0.01115  -0.1328  0.7732  0.8035  -0.7927   0.0000   0.0000   0.0000   0.5243
  -0.500   0.5107   0.01696   0.01146  -0.1317  0.7672  0.9471  -0.8094   0.0000   0.0000   0.0000   0.5083
  -0.250   0.5503   0.01683   0.01117  -0.1340  0.7645  1.0001  -0.8355   0.0000   0.0000   0.0000   0.4933
   0.000   0.5746   0.01713   0.01136  -0.1336  0.7593  1.0001  -0.8528   0.0000   0.0000   0.0000   0.4819
   0.250   0.6032   0.01718   0.01129  -0.1338  0.7555  1.0001  -0.8738   0.0000   0.0000   0.0000   0.4707
   0.500   0.6357   0.01703   0.01101  -0.1343  0.7532  1.0001  -0.8982   0.0000   0.0000   0.0000   0.4599
   0.750   0.6567   0.01748   0.01142  -0.1335  0.7464  1.0001  -0.9145   0.0000   0.0000   0.0000   0.4515
   1.000   0.6888   0.01733   0.01116  -0.1340  0.7437  1.0001  -0.9398   0.0000   0.0000   0.0000   0.4423
   1.250   0.7110   0.01771   0.01151  -0.1333  0.7373  1.0001  -0.9582   0.0000   0.0000   0.0000   0.4349
   1.500   0.7424   0.01757   0.01128  -0.1337  0.7342  1.0001  -0.9843   0.0000   0.0000   0.0000   0.4271
   1.750   0.7664   0.01785   0.01153  -0.1332  0.7284  1.0001  -1.0053   0.0000   0.0000   0.0000   0.4204
   2.000   0.7967   0.01775   0.01137  -0.1334  0.7246  1.0001  -1.0319   0.0000   0.0000   0.0000   0.4138
   2.250   0.8233   0.01787   0.01145  -0.1332  0.7196  1.0001  -1.0565   0.0000   0.0000   0.0000   0.4078
   2.500   0.8515   0.01786   0.01141  -0.1331  0.7148  1.0001  -1.0831   0.0000   0.0000   0.0000   0.4020
   2.750   0.8853   0.01758   0.01105  -0.1338  0.7121  1.0001  -1.1152   0.0000   0.0000   0.0000   0.3965
   3.000   0.9069   0.01790   0.01140  -0.1329  0.7047  1.0001  -1.1384   0.0000   0.0000   0.0000   0.3916
   3.250   0.9410   0.01759   0.01102  -0.1336  0.7018  1.0001  -1.1728   0.0000   0.0000   0.0000   0.3867
   3.500   0.9629   0.01786   0.01132  -0.1327  0.6942  1.0001  -1.1986   0.0000   0.0000   0.0000   0.3822
   3.750   0.9930   0.01773   0.01117  -0.1329  0.6897  1.0001  -1.2324   0.0000   0.0000   0.0000   0.3778
   4.000   1.0194   0.01774   0.01119  -0.1326  0.6833  1.0001  -1.2645   0.0000   0.0000   0.0000   0.3737
   4.250   1.0461   0.01776   0.01121  -0.1323  0.6771  1.0001  -1.2985   0.0000   0.0000   0.0000   0.3698
   4.500   1.0766   0.01755   0.01100  -0.1325  0.6719  1.0001  -1.3378   0.0000   0.0000   0.0000   0.3661
   4.750   1.1011   0.01763   0.01111  -0.1319  0.6644  1.0001  -1.3736   0.0000   0.0000   0.0000   0.3624
   5.000   1.1349   0.01729   0.01071  -0.1325  0.6599  1.0001  -1.4206   0.0000   0.0000   0.0000   0.3591
   5.250   1.1580   0.01738   0.01087  -0.1317  0.6513  1.0001  -1.4600   0.0000   0.0000   0.0000   0.3557
   5.500   1.1832   0.01739   0.01091  -0.1311  0.6433  1.0001  -1.5051   0.0000   0.0000   0.0000   0.3524
   5.750   1.2117   0.01725   0.01077  -0.1310  0.6362  1.0001  -1.5594   0.0000   0.0000   0.0000   0.3494
   6.000   1.2404   0.01709   0.01062  -0.1309  0.6285  1.0001  -1.6262   0.0000   0.0000   0.0000   0.3465
   6.250   1.2643   0.01712   0.01069  -0.1301  0.6190  1.0001  -1.7004   0.0000   0.0000   0.0000   0.3435
   6.500   1.2886   0.01713   0.01073  -0.1294  0.6092  1.0001  -1.7817   0.0000   0.0000   0.0000   0.3406
   6.750   1.3129   0.01714   0.01078  -0.1286  0.5989  1.0001  -1.8687   0.0000   0.0000   0.0000   0.3378
   7.000   1.3369   0.01716   0.01082  -0.1278  0.5880  1.0001  -1.9612   0.0000   0.0000   0.0000   0.3350
   7.250   1.3604   0.01721   0.01088  -0.1269  0.5763  1.0001  -2.0600   0.0000   0.0000   0.0000   0.3323
   7.500   1.3835   0.01727   0.01095  -0.1260  0.5639  1.0001  -2.1669   0.0000   0.0000   0.0000   0.3297
   7.750   1.4028   0.01746   0.01117  -0.1244  0.5496  1.0001  -2.2728   0.0000   0.0000   0.0000   0.3269
   8.000   1.4214   0.01767   0.01139  -0.1228  0.5341  1.0001  -2.3807   0.0000   0.0000   0.0000   0.3242
   8.250   1.4401   0.01791   0.01160  -0.1211  0.5181  1.0001  -2.4955   0.0000   0.0000   0.0000   0.3216
   8.500   1.4553   0.01827   0.01196  -0.1190  0.5007  1.0001  -2.6032   0.0000   0.0000   0.0000   0.3188
   8.750   1.4694   0.01870   0.01236  -0.1167  0.4833  1.0001  -2.7111   0.0000   0.0000   0.0000   0.3160
   9.000   1.4811   0.01920   0.01280  -0.1140  0.4660  1.0001  -2.8191   0.0000   0.0000   0.0000   0.3132
   9.250   1.4895   0.01982   0.01343  -0.1109  0.4484  1.0001  -2.9188   0.0000   0.0000   0.0000   0.3103
   9.500   1.4981   0.02054   0.01410  -0.1080  0.4311  1.0001  -3.0199   0.0000   0.0000   0.0000   0.3075
   9.750   1.5046   0.02139   0.01493  -0.1050  0.4132  1.0001  -3.1159   0.0000   0.0000   0.0000   0.3047
  10.000   1.5102   0.02236   0.01588  -0.1021  0.3953  1.0001  -3.2116   0.0000   0.0000   0.0000   0.3021
  10.250   1.5148   0.02345   0.01693  -0.0992  0.3773  1.0001  -3.3096   0.0000   0.0000   0.0000   0.2995
  10.500   1.5182   0.02469   0.01816  -0.0964  0.3588  1.0001  -3.4039   0.0000   0.0000   0.0000   0.2971
  10.750   1.5208   0.02607   0.01952  -0.0937  0.3399  1.0001  -3.4960   0.0000   0.0000   0.0000   0.2947
  11.000   1.5225   0.02760   0.02101  -0.0911  0.3207  1.0001  -3.5853   0.0000   0.0000   0.0000   0.2924
  11.250   1.5231   0.02928   0.02265  -0.0885  0.3014  1.0001  -3.6714   0.0000   0.0000   0.0000   0.2902
  11.500   1.5226   0.03112   0.02445  -0.0861  0.2818  1.0001  -3.7541   0.0000   0.0000   0.0000   0.2881
  11.750   1.5211   0.03311   0.02640  -0.0837  0.2620  1.0001  -3.8348   0.0000   0.0000   0.0000   0.2861
  12.000   1.5186   0.03527   0.02850  -0.0813  0.2421  1.0001  -3.9156   0.0000   0.0000   0.0000   0.2842
  12.250   1.5150   0.03760   0.03077  -0.0791  0.2223  1.0001  -3.9920   0.0000   0.0000   0.0000   0.2823
  12.500   1.5102   0.04011   0.03321  -0.0769  0.2029  1.0001  -4.0636   0.0000   0.0000   0.0000   0.2805
  12.750   1.5048   0.04281   0.03583  -0.0749  0.1841  1.0001  -4.1318   0.0000   0.0000   0.0000   0.2788
  13.000   1.4994   0.04564   0.03859  -0.0731  0.1655  1.0001  -4.1989   0.0000   0.0000   0.0000   0.2773
  13.250   1.4933   0.04862   0.04151  -0.0714  0.1488  1.0001  -4.2621   0.0000   0.0000   0.0000   0.2758
  13.500   1.4871   0.05174   0.04456  -0.0699  0.1344  1.0001  -4.3232   0.0000   0.0000   0.0000   0.2744
  13.750   1.4810   0.05495   0.04771  -0.0685  0.1221  1.0001  -4.3833   0.0000   0.0000   0.0000   0.2732
  14.000   1.4764   0.05809   0.05083  -0.0673  0.1111  1.0001  -4.4473   0.0000   0.0000   0.0000   0.2720
  14.250   1.4715   0.06131   0.05403  -0.0662  0.1024  1.0001  -4.5158   0.0000   0.0000   0.0000   0.2708
  14.500   1.4673   0.06454   0.05723  -0.0652  0.0951  1.0001  -4.5860   0.0000   0.0000   0.0000   0.2698
  14.750   1.4641   0.06769   0.06038  -0.0644  0.0887  1.0001  -4.6601   0.0000   0.0000   0.0000   0.2688
  15.000   1.4622   0.07076   0.06347  -0.0636  0.0829  1.0001  -4.7379   0.0000   0.0000   0.0000   0.2678
  15.250   1.4609   0.07377   0.06651  -0.0630  0.0778  1.0001  -4.8178   0.0000   0.0000   0.0000   0.2668
  15.500   1.4602   0.07671   0.06948  -0.0623  0.0735  1.0001  -4.8995   0.0000   0.0000   0.0000   0.2658
  15.750   1.4602   0.07954   0.07228  -0.0617  0.0698  1.0001  -4.9863   0.0000   0.0000   0.0000   0.2649
  16.000   1.4612   0.08236   0.07517  -0.0612  0.0660  1.0001  -5.0745   0.0000   0.0000   0.0000   0.2640
  16.250   1.4628   0.08506   0.07792  -0.0607  0.0627  1.0001  -5.1678   0.0000   0.0000   0.0000   0.2630
  16.500   1.4662   0.08744   0.08025  -0.0602  0.0599  1.0001  -5.2806   0.0000   0.0000   0.0000   0.2620
  16.750   1.4686   0.09011   0.08306  -0.0598  0.0571  1.0001  -5.3788   0.0000   0.0000   0.0000   0.2611
  17.000   1.4748   0.09201   0.08489  -0.0591  0.0547  1.0001  -5.5077   0.0000   0.0000   0.0000   0.2599
  17.250   1.4766   0.09483   0.08787  -0.0589  0.0524  1.0001  -5.6010   0.0000   0.0000   0.0000   0.2592
  17.500   1.4821   0.09695   0.08999  -0.0585  0.0503  1.0001  -5.7254   0.0000   0.0000   0.0000   0.2582
  17.750   1.4873   0.09915   0.09227  -0.0581  0.0483  1.0001  -5.8396   0.0000   0.0000   0.0000   0.2572
  18.000   1.4904   0.10179   0.09504  -0.0580  0.0466  1.0001  -5.9406   0.0000   0.0000   0.0000   0.2564
  18.250   1.5067   0.10206   0.09514  -0.0567  0.0448  1.0001  -6.1293   0.0000   0.0000   0.0000   0.2546
  18.500   1.5026   0.10595   0.09932  -0.0573  0.0435  1.0001  -6.1838   0.0000   0.0000   0.0000   0.2545
  18.750   1.5033   0.10901   0.10254  -0.0576  0.0422  1.0001  -6.2800   0.0000   0.0000   0.0000   0.2541
  19.000   1.5126   0.11051   0.10399  -0.0573  0.0408  1.0001  -6.4432   0.0000   0.0000   0.0000   0.2530
  19.250   1.5133   0.11353   0.10718  -0.0576  0.0397  1.0001  -6.5347   0.0000   0.0000   0.0000   0.2526
  19.500   1.5078   0.11772   0.11162  -0.0587  0.0388  1.0001  -6.5803   0.0000   0.0000   0.0000   0.2528
  19.750   1.5072   0.12108   0.11513  -0.0595  0.0379  1.0001  -6.6606   0.0000   0.0000   0.0000   0.2527
  20.000   1.5102   0.12379   0.11793  -0.0600  0.0370  1.0001  -6.7714   0.0000   0.0000   0.0000   0.2524


