xflr5 v6.61

 Calculated polar for: QX0026 v48

 1 1 Reynolds number fixed          Mach number fixed         

 xtrf =   1.000 (top)        1.000 (bottom)
 Mach =   0.000     Re =     0.500 e 6     Ncrit =   9.000

  alpha     CL        CD       CDp       Cm    Top Xtr Bot Xtr   Cpmin    Chinge    XCp    
 ------- -------- --------- --------- -------- ------- ------- -------- --------- ---------
  -5.000   0.0528   0.01275   0.00586  -0.1344  0.7712  0.0478  -2.4713   0.0000   0.0000   0.0000   2.8646
  -4.500   0.1098   0.01215   0.00522  -0.1349  0.7652  0.0530  -2.1839   0.0000   0.0000   0.0000   1.5083
  -4.000   0.1671   0.01166   0.00470  -0.1354  0.7595  0.0599  -1.9168   0.0000   0.0000   0.0000   1.0770
  -3.500   0.2250   0.01120   0.00422  -0.1359  0.7539  0.0698  -1.6564   0.0000   0.0000   0.0000   0.8650
  -3.000   0.2826   0.01079   0.00387  -0.1365  0.7476  0.0856  -1.4193   0.0000   0.0000   0.0000   0.7400
  -2.000   0.3984   0.00995   0.00339  -0.1378  0.7354  0.1941  -0.9848   0.0000   0.0000   0.0000   0.5988
  -1.500   0.4563   0.00961   0.00332  -0.1385  0.7291  0.2829  -0.7885   0.0000   0.0000   0.0000   0.5551
  -1.000   0.5144   0.00929   0.00324  -0.1392  0.7229  0.3848  -0.8221   0.0000   0.0000   0.0000   0.5210
   0.000   0.6276   0.00857   0.00338  -0.1398  0.7088  0.6828  -0.8987   0.0000   0.0000   0.0000   0.4715
   0.500   0.6785   0.00819   0.00344  -0.1384  0.7019  0.8467  -0.9373   0.0000   0.0000   0.0000   0.4518
   1.000   0.7353   0.00798   0.00337  -0.1381  0.6938  1.0001  -0.9807   0.0000   0.0000   0.0000   0.4350
   1.500   0.7929   0.00809   0.00340  -0.1385  0.6855  1.0001  -1.0281   0.0000   0.0000   0.0000   0.4213
   2.000   0.8502   0.00820   0.00344  -0.1389  0.6767  1.0001  -1.0779   0.0000   0.0000   0.0000   0.4093
   2.500   0.9073   0.00832   0.00350  -0.1393  0.6674  1.0001  -1.1299   0.0000   0.0000   0.0000   0.3988
   3.000   0.9638   0.00844   0.00359  -0.1395  0.6573  1.0001  -1.1884   0.0000   0.0000   0.0000   0.3894
   3.500   1.0196   0.00857   0.00370  -0.1396  0.6455  1.0001  -1.2499   0.0000   0.0000   0.0000   0.3809
   4.000   1.0748   0.00872   0.00384  -0.1396  0.6327  1.0001  -1.3181   0.0000   0.0000   0.0000   0.3733
   4.500   1.1293   0.00890   0.00400  -0.1395  0.6186  1.0001  -1.3944   0.0000   0.0000   0.0000   0.3662
   5.000   1.1824   0.00911   0.00422  -0.1391  0.6009  1.0001  -1.4806   0.0000   0.0000   0.0000   0.3597
   5.500   1.2346   0.00938   0.00447  -0.1386  0.5823  1.0001  -1.5926   0.0000   0.0000   0.0000   0.3536
   6.000   1.2842   0.00973   0.00479  -0.1377  0.5571  1.0001  -1.7349   0.0000   0.0000   0.0000   0.3478
   6.500   1.3312   0.01022   0.00521  -0.1363  0.5281  1.0001  -1.9005   0.0000   0.0000   0.0000   0.3423
   7.000   1.3727   0.01092   0.00578  -0.1339  0.4891  1.0001  -2.0892   0.0000   0.0000   0.0000   0.3367
   7.500   1.4109   0.01177   0.00650  -0.1311  0.4531  1.0001  -2.2902   0.0000   0.0000   0.0000   0.3313
   8.000   1.4433   0.01278   0.00738  -0.1273  0.4145  1.0001  -2.4942   0.0000   0.0000   0.0000   0.3259
   8.500   1.4654   0.01404   0.00851  -0.1219  0.3750  1.0001  -2.6873   0.0000   0.0000   0.0000   0.3201
   9.000   1.4855   0.01568   0.01000  -0.1168  0.3347  1.0001  -2.8824   0.0000   0.0000   0.0000   0.3147
   9.500   1.5032   0.01772   0.01188  -0.1121  0.2940  1.0001  -3.0827   0.0000   0.0000   0.0000   0.3097
  10.000   1.5184   0.02016   0.01416  -0.1076  0.2531  1.0001  -3.2834   0.0000   0.0000   0.0000   0.3051
  10.500   1.5309   0.02298   0.01682  -0.1032  0.2134  1.0001  -3.4787   0.0000   0.0000   0.0000   0.3008
  11.000   1.5407   0.02614   0.01980  -0.0990  0.1761  1.0001  -3.6805   0.0000   0.0000   0.0000   0.2967
  11.500   1.5488   0.02955   0.02307  -0.0949  0.1429  1.0001  -3.8796   0.0000   0.0000   0.0000   0.2928
  12.500   1.5620   0.03700   0.03033  -0.0875  0.0918  1.0001  -4.2765   0.0000   0.0000   0.0000   0.2856
  13.500   1.5746   0.04529   0.03860  -0.0816  0.0637  1.0001  -4.7003   0.0000   0.0000   0.0000   0.2793
  14.000   1.5808   0.04973   0.04309  -0.0792  0.0550  1.0001  -4.9137   0.0000   0.0000   0.0000   0.2765
  14.500   1.5835   0.05474   0.04817  -0.0771  0.0488  1.0001  -5.1129   0.0000   0.0000   0.0000   0.2740
  15.000   1.5869   0.05987   0.05340  -0.0753  0.0437  1.0001  -5.3227   0.0000   0.0000   0.0000   0.2716
  15.500   1.5871   0.06551   0.05915  -0.0738  0.0397  1.0001  -5.5266   0.0000   0.0000   0.0000   0.2696
  16.000   1.5895   0.07112   0.06491  -0.0728  0.0364  1.0001  -5.7405   0.0000   0.0000   0.0000   0.2677
  16.500   1.5863   0.07757   0.07152  -0.0720  0.0339  1.0001  -5.9248   0.0000   0.0000   0.0000   0.2661
  17.000   1.5800   0.08455   0.07864  -0.0717  0.0318  1.0001  -6.0952   0.0000   0.0000   0.0000   0.2649
  17.500   1.5758   0.09150   0.08578  -0.0718  0.0298  1.0001  -6.2700   0.0000   0.0000   0.0000   0.2639
  18.000   1.5687   0.09898   0.09339  -0.0724  0.0282  1.0001  -6.4308   0.0000   0.0000   0.0000   0.2632
  18.500   1.5591   0.10685   0.10144  -0.0733  0.0269  1.0001  -6.5757   0.0000   0.0000   0.0000   0.2629
  19.000   1.5534   0.11439   0.10916  -0.0747  0.0256  1.0001  -6.7471   0.0000   0.0000   0.0000   0.2627
  19.500   1.5448   0.12241   0.11731  -0.0766  0.0245  1.0001  -6.8976   0.0000   0.0000   0.0000   0.2629
  20.000   1.5379   0.13020   0.12527  -0.0788  0.0235  1.0001  -7.0466   0.0000   0.0000   0.0000   0.2632


