xflr5 v6.61

 Calculated polar for: QX0026 thickness=13.65

 1 1 Reynolds number fixed          Mach number fixed         

 xtrf =   1.000 (top)        1.000 (bottom)
 Mach =   0.000     Re =     0.780 e 6     Ncrit =   9.000

  alpha     CL        CD       CDp       Cm    Top Xtr Bot Xtr   Cpmin    Chinge    XCp    
 ------- -------- --------- --------- -------- ------- ------- -------- --------- ---------
 -10.000  -0.2574   0.07869   0.07600  -0.0815  0.8091  0.0203  -3.1126   0.0000   0.0000   0.0000  -0.0948
  -9.750  -0.2483   0.07645   0.07375  -0.0831  0.8052  0.0206  -3.0191   0.0000   0.0000   0.0000  -0.1129
  -9.500  -0.2343   0.07529   0.07256  -0.0841  0.8019  0.0212  -2.8530   0.0000   0.0000   0.0000  -0.1374
  -9.250  -0.2175   0.07463   0.07192  -0.0852  0.7980  0.0244  -2.6361   0.0000   0.0000   0.0000  -0.1712
  -9.000  -0.2062   0.07280   0.07008  -0.0867  0.7946  0.0253  -2.5233   0.0000   0.0000   0.0000  -0.1999
  -8.750  -0.3599   0.01688   0.01143  -0.1299  0.7876  0.0215  -5.5796   0.0000   0.0000   0.0000  -0.1311
  -8.500  -0.3336   0.01628   0.01071  -0.1300  0.7847  0.0221  -5.3599   0.0000   0.0000   0.0000  -0.1604
  -8.250  -0.3071   0.01572   0.01002  -0.1300  0.7819  0.0227  -5.1441   0.0000   0.0000   0.0000  -0.1952
  -8.000  -0.2800   0.01524   0.00943  -0.1301  0.7787  0.0232  -4.9267   0.0000   0.0000   0.0000  -0.2376
  -7.750  -0.2544   0.01435   0.00844  -0.1302  0.7758  0.0239  -4.7312   0.0000   0.0000   0.0000  -0.2857
  -7.500  -0.2274   0.01390   0.00794  -0.1303  0.7733  0.0246  -4.5092   0.0000   0.0000   0.0000  -0.3487
  -7.250  -0.1998   0.01355   0.00756  -0.1304  0.7703  0.0254  -4.2869   0.0000   0.0000   0.0000  -0.4309
  -7.000  -0.1720   0.01322   0.00717  -0.1306  0.7673  0.0263  -4.0841   0.0000   0.0000   0.0000  -0.5404
  -6.750  -0.1438   0.01296   0.00681  -0.1307  0.7647  0.0271  -3.8896   0.0000   0.0000   0.0000  -0.6941
  -6.500  -0.1170   0.01233   0.00614  -0.1308  0.7622  0.0282  -3.7120   0.0000   0.0000   0.0000  -0.9090
  -6.250  -0.0891   0.01202   0.00583  -0.1310  0.7592  0.0292  -3.5185   0.0000   0.0000   0.0000  -1.2722
  -6.000  -0.0609   0.01175   0.00550  -0.1311  0.7564  0.0304  -3.3312   0.0000   0.0000   0.0000  -1.9756
  -5.750  -0.0325   0.01151   0.00518  -0.1312  0.7539  0.0315  -3.1480   0.0000   0.0000   0.0000  -3.9160
  -5.500  -0.0048   0.01111   0.00479  -0.1314  0.7513  0.0331  -2.9682   0.0000   0.0000   0.0000  -28.1598
  -5.250   0.0237   0.01090   0.00456  -0.1316  0.7483  0.0349  -2.7860   0.0000   0.0000   0.0000   5.9571
  -5.000   0.0520   0.01062   0.00423  -0.1318  0.7456  0.0366  -2.6190   0.0000   0.0000   0.0000   2.8511
  -4.750   0.0805   0.01040   0.00398  -0.1320  0.7431  0.0386  -2.4586   0.0000   0.0000   0.0000   1.9304
  -4.500   0.1092   0.01023   0.00379  -0.1321  0.7402  0.0408  -2.3026   0.0000   0.0000   0.0000   1.4891
  -4.250   0.1376   0.00997   0.00354  -0.1324  0.7372  0.0438  -2.1485   0.0000   0.0000   0.0000   1.2333
  -4.000   0.1662   0.00977   0.00332  -0.1325  0.7345  0.0471  -1.9978   0.0000   0.0000   0.0000   1.0637
  -3.750   0.1950   0.00963   0.00315  -0.1328  0.7318  0.0508  -1.8484   0.0000   0.0000   0.0000   0.9437
  -3.500   0.2236   0.00943   0.00298  -0.1330  0.7286  0.0557  -1.7078   0.0000   0.0000   0.0000   0.8550
  -3.250   0.2523   0.00926   0.00281  -0.1332  0.7256  0.0620  -1.5767   0.0000   0.0000   0.0000   0.7861
  -3.000   0.2811   0.00910   0.00266  -0.1334  0.7229  0.0705  -1.4481   0.0000   0.0000   0.0000   0.7313
  -2.750   0.3098   0.00892   0.00254  -0.1336  0.7198  0.0835  -1.3221   0.0000   0.0000   0.0000   0.6869
  -2.500   0.3384   0.00873   0.00243  -0.1339  0.7165  0.1053  -1.1985   0.0000   0.0000   0.0000   0.6500
  -2.250   0.3671   0.00854   0.00233  -0.1341  0.7136  0.1367  -1.0857   0.0000   0.0000   0.0000   0.6189
  -2.000   0.3957   0.00836   0.00227  -0.1344  0.7107  0.1751  -0.9764   0.0000   0.0000   0.0000   0.5924
  -1.750   0.4242   0.00820   0.00223  -0.1347  0.7072  0.2139  -0.8695   0.0000   0.0000   0.0000   0.5694
  -1.500   0.4529   0.00805   0.00218  -0.1349  0.7041  0.2519  -0.7890   0.0000   0.0000   0.0000   0.5493
  -1.250   0.4817   0.00794   0.00215  -0.1352  0.7012  0.2908  -0.8071   0.0000   0.0000   0.0000   0.5315
  -1.000   0.5102   0.00780   0.00214  -0.1354  0.6975  0.3334  -0.8254   0.0000   0.0000   0.0000   0.5158
  -0.750   0.5388   0.00765   0.00213  -0.1357  0.6941  0.3831  -0.8443   0.0000   0.0000   0.0000   0.5017
  -0.500   0.5674   0.00752   0.00212  -0.1359  0.6911  0.4426  -0.8637   0.0000   0.0000   0.0000   0.4890
  -0.250   0.5955   0.00733   0.00215  -0.1361  0.6873  0.5149  -0.8833   0.0000   0.0000   0.0000   0.4776
   0.000   0.6235   0.00713   0.00218  -0.1363  0.6837  0.6003  -0.9034   0.0000   0.0000   0.0000   0.4671
   0.250   0.6511   0.00697   0.00223  -0.1362  0.6804  0.6885  -0.9239   0.0000   0.0000   0.0000   0.4575
   0.500   0.6783   0.00683   0.00229  -0.1361  0.6763  0.7526  -0.9446   0.0000   0.0000   0.0000   0.4485
   0.750   0.7043   0.00668   0.00232  -0.1356  0.6725  0.8214  -0.9653   0.0000   0.0000   0.0000   0.4400
   1.000   0.7262   0.00650   0.00237  -0.1339  0.6688  0.9158  -0.9844   0.0000   0.0000   0.0000   0.4316
   1.250   0.7642   0.00642   0.00233  -0.1360  0.6643  1.0001  -1.0130   0.0000   0.0000   0.0000   0.4248
   1.500   0.7925   0.00649   0.00234  -0.1362  0.6603  1.0001  -1.0367   0.0000   0.0000   0.0000   0.4183
   1.750   0.8207   0.00653   0.00237  -0.1363  0.6556  1.0001  -1.0611   0.0000   0.0000   0.0000   0.4123
   2.000   0.8489   0.00659   0.00239  -0.1364  0.6510  1.0001  -1.0862   0.0000   0.0000   0.0000   0.4066
   2.250   0.8771   0.00665   0.00243  -0.1365  0.6461  1.0001  -1.1121   0.0000   0.0000   0.0000   0.4012
   2.500   0.9051   0.00671   0.00247  -0.1366  0.6409  1.0001  -1.1388   0.0000   0.0000   0.0000   0.3962
   2.750   0.9331   0.00678   0.00252  -0.1367  0.6356  1.0001  -1.1664   0.0000   0.0000   0.0000   0.3914
   3.000   0.9609   0.00685   0.00257  -0.1368  0.6298  1.0001  -1.1950   0.0000   0.0000   0.0000   0.3869
   3.250   0.9887   0.00692   0.00263  -0.1368  0.6237  1.0001  -1.2247   0.0000   0.0000   0.0000   0.3827
   3.500   1.0162   0.00702   0.00270  -0.1368  0.6175  1.0001  -1.2556   0.0000   0.0000   0.0000   0.3786
   3.750   1.0437   0.00709   0.00278  -0.1369  0.6102  1.0001  -1.2878   0.0000   0.0000   0.0000   0.3748
   4.000   1.0710   0.00719   0.00286  -0.1368  0.6030  1.0001  -1.3216   0.0000   0.0000   0.0000   0.3711
   4.250   1.0978   0.00731   0.00295  -0.1367  0.5952  1.0001  -1.3567   0.0000   0.0000   0.0000   0.3675
   4.500   1.1247   0.00742   0.00305  -0.1366  0.5864  1.0001  -1.3940   0.0000   0.0000   0.0000   0.3642
   4.750   1.1513   0.00755   0.00316  -0.1365  0.5769  1.0001  -1.4332   0.0000   0.0000   0.0000   0.3609
   5.000   1.1775   0.00769   0.00329  -0.1363  0.5665  1.0001  -1.4746   0.0000   0.0000   0.0000   0.3578
   5.250   1.2033   0.00786   0.00342  -0.1360  0.5551  1.0001  -1.5190   0.0000   0.0000   0.0000   0.3547
   5.500   1.2284   0.00805   0.00358  -0.1356  0.5426  1.0001  -1.5675   0.0000   0.0000   0.0000   0.3517
   5.750   1.2531   0.00826   0.00376  -0.1352  0.5287  1.0001  -1.6252   0.0000   0.0000   0.0000   0.3488
   6.000   1.2772   0.00851   0.00395  -0.1346  0.5130  1.0001  -1.6990   0.0000   0.0000   0.0000   0.3460
   6.250   1.3000   0.00881   0.00419  -0.1338  0.4963  1.0001  -1.7779   0.0000   0.0000   0.0000   0.3432
   6.500   1.3221   0.00914   0.00445  -0.1329  0.4779  1.0001  -1.8607   0.0000   0.0000   0.0000   0.3405
   6.750   1.3434   0.00951   0.00475  -0.1319  0.4584  1.0001  -1.9471   0.0000   0.0000   0.0000   0.3378
   7.000   1.3638   0.00991   0.00507  -0.1308  0.4388  1.0001  -2.0380   0.0000   0.0000   0.0000   0.3351
   7.250   1.3834   0.01034   0.00542  -0.1295  0.4199  1.0001  -2.1356   0.0000   0.0000   0.0000   0.3324
   7.500   1.4025   0.01077   0.00578  -0.1281  0.4013  1.0001  -2.2403   0.0000   0.0000   0.0000   0.3298
   7.750   1.4208   0.01122   0.00616  -0.1267  0.3830  1.0001  -2.3475   0.0000   0.0000   0.0000   0.3272
   8.000   1.4361   0.01170   0.00658  -0.1246  0.3650  1.0001  -2.4535   0.0000   0.0000   0.0000   0.3245
   8.250   1.4498   0.01226   0.00706  -0.1224  0.3465  1.0001  -2.5568   0.0000   0.0000   0.0000   0.3217
   8.500   1.4632   0.01287   0.00760  -0.1202  0.3273  1.0001  -2.6628   0.0000   0.0000   0.0000   0.3190
   8.750   1.4756   0.01357   0.00821  -0.1179  0.3075  1.0001  -2.7719   0.0000   0.0000   0.0000   0.3164
   9.000   1.4869   0.01436   0.00892  -0.1156  0.2873  1.0001  -2.8792   0.0000   0.0000   0.0000   0.3139
   9.250   1.4972   0.01525   0.00972  -0.1134  0.2671  1.0001  -2.9850   0.0000   0.0000   0.0000   0.3114
   9.500   1.5069   0.01624   0.01062  -0.1111  0.2469  1.0001  -3.0899   0.0000   0.0000   0.0000   0.3090
   9.750   1.5161   0.01730   0.01159  -0.1090  0.2270  1.0001  -3.1982   0.0000   0.0000   0.0000   0.3067
  10.000   1.5246   0.01846   0.01266  -0.1068  0.2074  1.0001  -3.3083   0.0000   0.0000   0.0000   0.3044
  10.250   1.5323   0.01971   0.01383  -0.1047  0.1882  1.0001  -3.4171   0.0000   0.0000   0.0000   0.3022
  10.500   1.5393   0.02105   0.01508  -0.1026  0.1699  1.0001  -3.5245   0.0000   0.0000   0.0000   0.3001
  10.750   1.5459   0.02245   0.01639  -0.1006  0.1528  1.0001  -3.6317   0.0000   0.0000   0.0000   0.2980
  11.000   1.5520   0.02391   0.01778  -0.0985  0.1368  1.0001  -3.7377   0.0000   0.0000   0.0000   0.2960
  11.250   1.5575   0.02545   0.01925  -0.0965  0.1216  1.0001  -3.8438   0.0000   0.0000   0.0000   0.2940
  11.750   1.5679   0.02863   0.02232  -0.0927  0.0955  1.0001  -4.0685   0.0000   0.0000   0.0000   0.2902
  12.000   1.5734   0.03024   0.02390  -0.0909  0.0850  1.0001  -4.1833   0.0000   0.0000   0.0000   0.2884
  12.500   1.5836   0.03360   0.02721  -0.0875  0.0684  1.0001  -4.4122   0.0000   0.0000   0.0000   0.2849
  12.750   1.5889   0.03533   0.02893  -0.0860  0.0617  1.0001  -4.5285   0.0000   0.0000   0.0000   0.2832
  13.000   1.5941   0.03711   0.03072  -0.0845  0.0560  1.0001  -4.6457   0.0000   0.0000   0.0000   0.2816
  13.250   1.5994   0.03892   0.03253  -0.0831  0.0513  1.0001  -4.7717   0.0000   0.0000   0.0000   0.2800
  13.500   1.6046   0.04077   0.03441  -0.0818  0.0473  1.0001  -4.8981   0.0000   0.0000   0.0000   0.2785
  13.750   1.6093   0.04273   0.03639  -0.0805  0.0440  1.0001  -5.0228   0.0000   0.0000   0.0000   0.2770
  14.000   1.6139   0.04473   0.03841  -0.0793  0.0410  1.0001  -5.1485   0.0000   0.0000   0.0000   0.2756
  14.250   1.6192   0.04671   0.04044  -0.0782  0.0384  1.0001  -5.2775   0.0000   0.0000   0.0000   0.2742
  14.500   1.6213   0.04901   0.04276  -0.0771  0.0361  1.0001  -5.3934   0.0000   0.0000   0.0000   0.2729
  14.750   1.6270   0.05100   0.04482  -0.0761  0.0340  1.0001  -5.5260   0.0000   0.0000   0.0000   0.2716
  15.250   1.6332   0.05565   0.04957  -0.0743  0.0305  1.0001  -5.7801   0.0000   0.0000   0.0000   0.2692
  15.500   1.6350   0.05818   0.05214  -0.0735  0.0291  1.0001  -5.9052   0.0000   0.0000   0.0000   0.2681
  15.750   1.6355   0.06089   0.05491  -0.0727  0.0278  1.0001  -6.0231   0.0000   0.0000   0.0000   0.2670
  16.000   1.6385   0.06334   0.05744  -0.0721  0.0267  1.0001  -6.1548   0.0000   0.0000   0.0000   0.2660
  16.250   1.6388   0.06614   0.06030  -0.0715  0.0256  1.0001  -6.2734   0.0000   0.0000   0.0000   0.2650
  16.500   1.6348   0.06952   0.06373  -0.0709  0.0246  1.0001  -6.3676   0.0000   0.0000   0.0000   0.2641
  16.750   1.6376   0.07213   0.06643  -0.0705  0.0238  1.0001  -6.4993   0.0000   0.0000   0.0000   0.2632
  17.000   1.6382   0.07504   0.06942  -0.0702  0.0229  1.0001  -6.6204   0.0000   0.0000   0.0000   0.2624
  17.250   1.6362   0.07831   0.07275  -0.0700  0.0222  1.0001  -6.7275   0.0000   0.0000   0.0000   0.2617
  17.500   1.6295   0.08220   0.07670  -0.0698  0.0215  1.0001  -6.8056   0.0000   0.0000   0.0000   0.2612
  17.750   1.6273   0.08558   0.08018  -0.0698  0.0210  1.0001  -6.9081   0.0000   0.0000   0.0000   0.2606
  18.000   1.6259   0.08891   0.08361  -0.0698  0.0204  1.0001  -7.0208   0.0000   0.0000   0.0000   0.2601
  18.250   1.6232   0.09244   0.08722  -0.0700  0.0199  1.0001  -7.1292   0.0000   0.0000   0.0000   0.2596
  18.500   1.6193   0.09618   0.09104  -0.0703  0.0194  1.0001  -7.2295   0.0000   0.0000   0.0000   0.2593
  18.750   1.6133   0.10025   0.09519  -0.0708  0.0189  1.0001  -7.3152   0.0000   0.0000   0.0000   0.2591
  19.000   1.6035   0.10487   0.09990  -0.0714  0.0185  1.0001  -7.3730   0.0000   0.0000   0.0000   0.2591
  19.250   1.5953   0.10935   0.10447  -0.0722  0.0181  1.0001  -7.4380   0.0000   0.0000   0.0000   0.2592
  19.500   1.5924   0.11308   0.10830  -0.0730  0.0177  1.0001  -7.5393   0.0000   0.0000   0.0000   0.2591
  19.750   1.5884   0.11703   0.11234  -0.0738  0.0173  1.0001  -7.6316   0.0000   0.0000   0.0000   0.2591
  20.000   1.5838   0.12109   0.11649  -0.0749  0.0169  1.0001  -7.7191   0.0000   0.0000   0.0000   0.2592


