xflr5 v6.61

 Calculated polar for: QX0026 thickness=13.65

 1 1 Reynolds number fixed          Mach number fixed         

 xtrf =   1.000 (top)        1.000 (bottom)
 Mach =   0.000     Re =     0.820 e 6     Ncrit =   9.000

  alpha     CL        CD       CDp       Cm    Top Xtr Bot Xtr   Cpmin    Chinge    XCp    
 ------- -------- --------- --------- -------- ------- ------- -------- --------- ---------
 -10.000  -0.2452   0.08154   0.07888  -0.0798  0.8060  0.0204  -2.9049   0.0000   0.0000   0.0000  -0.1044
  -9.750  -0.2363   0.07929   0.07660  -0.0813  0.8026  0.0207  -2.8183   0.0000   0.0000   0.0000  -0.1229
  -9.250  -0.4138   0.01747   0.01211  -0.1294  0.7914  0.0202  -6.0943   0.0000   0.0000   0.0000  -0.0821
  -9.000  -0.3882   0.01678   0.01138  -0.1296  0.7880  0.0207  -5.8599   0.0000   0.0000   0.0000  -0.1034
  -8.750  -0.3618   0.01628   0.01081  -0.1297  0.7851  0.0212  -5.6225   0.0000   0.0000   0.0000  -0.1286
  -8.500  -0.3353   0.01578   0.01021  -0.1298  0.7824  0.0217  -5.3936   0.0000   0.0000   0.0000  -0.1580
  -8.250  -0.3085   0.01524   0.00959  -0.1299  0.7791  0.0223  -5.1713   0.0000   0.0000   0.0000  -0.1927
  -8.000  -0.2815   0.01476   0.00900  -0.1300  0.7761  0.0229  -4.9518   0.0000   0.0000   0.0000  -0.2345
  -7.750  -0.2540   0.01441   0.00853  -0.1301  0.7736  0.0233  -4.7297   0.0000   0.0000   0.0000  -0.2864
  -7.500  -0.2284   0.01352   0.00760  -0.1302  0.7707  0.0242  -4.5323   0.0000   0.0000   0.0000  -0.3456
  -7.250  -0.2008   0.01317   0.00722  -0.1303  0.7677  0.0249  -4.3076   0.0000   0.0000   0.0000  -0.4270
  -7.000  -0.1729   0.01288   0.00687  -0.1304  0.7650  0.0259  -4.1020   0.0000   0.0000   0.0000  -0.5355
  -6.750  -0.1448   0.01261   0.00651  -0.1306  0.7626  0.0268  -3.9059   0.0000   0.0000   0.0000  -0.6870
  -6.500  -0.1174   0.01210   0.00596  -0.1307  0.7596  0.0277  -3.7245   0.0000   0.0000   0.0000  -0.9042
  -6.250  -0.0897   0.01174   0.00558  -0.1309  0.7567  0.0288  -3.5324   0.0000   0.0000   0.0000  -1.2609
  -6.000  -0.0614   0.01148   0.00528  -0.1310  0.7542  0.0299  -3.3417   0.0000   0.0000   0.0000  -1.9540
  -5.750  -0.0330   0.01126   0.00500  -0.1312  0.7517  0.0311  -3.1564   0.0000   0.0000   0.0000  -3.8497
  -5.500  -0.0051   0.01087   0.00460  -0.1313  0.7487  0.0326  -2.9778   0.0000   0.0000   0.0000  -26.0669
  -5.250   0.0234   0.01067   0.00438  -0.1315  0.7459  0.0343  -2.7932   0.0000   0.0000   0.0000   6.0397
  -5.000   0.0521   0.01052   0.00416  -0.1317  0.7435  0.0359  -2.6210   0.0000   0.0000   0.0000   2.8462
  -4.750   0.0802   0.01019   0.00384  -0.1319  0.7407  0.0380  -2.4647   0.0000   0.0000   0.0000   1.9352
  -4.500   0.1089   0.01002   0.00365  -0.1321  0.7377  0.0403  -2.3069   0.0000   0.0000   0.0000   1.4910
  -4.250   0.1375   0.00978   0.00340  -0.1323  0.7349  0.0431  -2.1527   0.0000   0.0000   0.0000   1.2337
  -4.000   0.1663   0.00964   0.00322  -0.1325  0.7324  0.0463  -2.0003   0.0000   0.0000   0.0000   1.0633
  -3.750   0.1949   0.00944   0.00304  -0.1327  0.7293  0.0501  -1.8511   0.0000   0.0000   0.0000   0.9439
  -3.500   0.2236   0.00926   0.00287  -0.1329  0.7262  0.0548  -1.7099   0.0000   0.0000   0.0000   0.8548
  -3.250   0.2524   0.00910   0.00270  -0.1331  0.7235  0.0610  -1.5781   0.0000   0.0000   0.0000   0.7859
  -3.000   0.2811   0.00896   0.00258  -0.1334  0.7206  0.0691  -1.4492   0.0000   0.0000   0.0000   0.7311
  -2.750   0.3098   0.00878   0.00245  -0.1336  0.7173  0.0818  -1.3228   0.0000   0.0000   0.0000   0.6866
  -2.500   0.3385   0.00859   0.00233  -0.1338  0.7143  0.1028  -1.1988   0.0000   0.0000   0.0000   0.6498
  -2.250   0.3672   0.00842   0.00225  -0.1341  0.7116  0.1327  -1.0858   0.0000   0.0000   0.0000   0.6187
  -2.000   0.3957   0.00822   0.00219  -0.1344  0.7081  0.1701  -0.9766   0.0000   0.0000   0.0000   0.5922
  -1.750   0.4244   0.00806   0.00213  -0.1346  0.7049  0.2084  -0.8694   0.0000   0.0000   0.0000   0.5692
  -1.500   0.4532   0.00795   0.00209  -0.1349  0.7021  0.2462  -0.7894   0.0000   0.0000   0.0000   0.5490
  -1.250   0.4818   0.00781   0.00208  -0.1352  0.6986  0.2838  -0.8073   0.0000   0.0000   0.0000   0.5313
  -1.000   0.5104   0.00767   0.00205  -0.1354  0.6952  0.3255  -0.8257   0.0000   0.0000   0.0000   0.5156
  -0.750   0.5391   0.00755   0.00203  -0.1357  0.6921  0.3735  -0.8447   0.0000   0.0000   0.0000   0.5015
  -0.500   0.5676   0.00740   0.00205  -0.1359  0.6886  0.4302  -0.8639   0.0000   0.0000   0.0000   0.4888
  -0.250   0.5959   0.00722   0.00206  -0.1361  0.6849  0.4996  -0.8837   0.0000   0.0000   0.0000   0.4774
   0.000   0.6240   0.00704   0.00208  -0.1363  0.6816  0.5823  -0.9039   0.0000   0.0000   0.0000   0.4670
   0.250   0.6516   0.00685   0.00215  -0.1363  0.6778  0.6724  -0.9243   0.0000   0.0000   0.0000   0.4574
   0.500   0.6792   0.00672   0.00219  -0.1362  0.6739  0.7385  -0.9452   0.0000   0.0000   0.0000   0.4484
   0.750   0.7058   0.00661   0.00223  -0.1359  0.6704  0.8039  -0.9663   0.0000   0.0000   0.0000   0.4400
   1.000   0.7288   0.00641   0.00229  -0.1346  0.6661  0.8913  -0.9859   0.0000   0.0000   0.0000   0.4318
   1.250   0.7645   0.00628   0.00225  -0.1361  0.6620  1.0001  -1.0133   0.0000   0.0000   0.0000   0.4248
   1.500   0.7928   0.00634   0.00227  -0.1362  0.6579  1.0001  -1.0370   0.0000   0.0000   0.0000   0.4183
   1.750   0.8211   0.00639   0.00230  -0.1364  0.6531  1.0001  -1.0614   0.0000   0.0000   0.0000   0.4122
   2.000   0.8493   0.00646   0.00232  -0.1365  0.6488  1.0001  -1.0866   0.0000   0.0000   0.0000   0.4065
   2.250   0.8775   0.00650   0.00236  -0.1366  0.6434  1.0001  -1.1125   0.0000   0.0000   0.0000   0.4012
   2.750   0.9336   0.00664   0.00245  -0.1368  0.6328  1.0001  -1.1669   0.0000   0.0000   0.0000   0.3914
   3.000   0.9613   0.00673   0.00250  -0.1368  0.6274  1.0001  -1.1954   0.0000   0.0000   0.0000   0.3869
   3.250   0.9892   0.00679   0.00256  -0.1369  0.6208  1.0001  -1.2252   0.0000   0.0000   0.0000   0.3827
   3.500   1.0168   0.00688   0.00263  -0.1369  0.6145  1.0001  -1.2562   0.0000   0.0000   0.0000   0.3786
   3.750   1.0442   0.00697   0.00270  -0.1369  0.6075  1.0001  -1.2883   0.0000   0.0000   0.0000   0.3748
   4.000   1.0716   0.00706   0.00279  -0.1369  0.5998  1.0001  -1.3222   0.0000   0.0000   0.0000   0.3711
   4.250   1.0986   0.00717   0.00288  -0.1369  0.5918  1.0001  -1.3575   0.0000   0.0000   0.0000   0.3676
   4.500   1.1254   0.00730   0.00298  -0.1367  0.5831  1.0001  -1.3946   0.0000   0.0000   0.0000   0.3642
   4.750   1.1518   0.00744   0.00309  -0.1366  0.5736  1.0001  -1.4336   0.0000   0.0000   0.0000   0.3609
   5.000   1.1779   0.00759   0.00322  -0.1364  0.5630  1.0001  -1.4751   0.0000   0.0000   0.0000   0.3578
   5.250   1.2038   0.00775   0.00336  -0.1361  0.5512  1.0001  -1.5196   0.0000   0.0000   0.0000   0.3547
   5.500   1.2291   0.00794   0.00351  -0.1358  0.5381  1.0001  -1.5684   0.0000   0.0000   0.0000   0.3518
   5.750   1.2538   0.00816   0.00369  -0.1353  0.5235  1.0001  -1.6262   0.0000   0.0000   0.0000   0.3489
   6.000   1.2774   0.00843   0.00390  -0.1346  0.5078  1.0001  -1.6995   0.0000   0.0000   0.0000   0.3460
   6.250   1.3005   0.00872   0.00413  -0.1339  0.4904  1.0001  -1.7790   0.0000   0.0000   0.0000   0.3433
   6.500   1.3226   0.00906   0.00440  -0.1331  0.4720  1.0001  -1.8618   0.0000   0.0000   0.0000   0.3405
   6.750   1.3436   0.00944   0.00470  -0.1320  0.4524  1.0001  -1.9478   0.0000   0.0000   0.0000   0.3378
   7.250   1.3842   0.01025   0.00536  -0.1297  0.4136  1.0001  -2.1375   0.0000   0.0000   0.0000   0.3325
   7.500   1.4035   0.01068   0.00572  -0.1284  0.3952  1.0001  -2.2429   0.0000   0.0000   0.0000   0.3299
   7.750   1.4215   0.01115   0.00611  -0.1268  0.3770  1.0001  -2.3497   0.0000   0.0000   0.0000   0.3273
   8.000   1.4369   0.01163   0.00652  -0.1248  0.3586  1.0001  -2.4559   0.0000   0.0000   0.0000   0.3245
   8.250   1.4512   0.01216   0.00699  -0.1227  0.3398  1.0001  -2.5608   0.0000   0.0000   0.0000   0.3218
   8.500   1.4646   0.01278   0.00752  -0.1204  0.3205  1.0001  -2.6672   0.0000   0.0000   0.0000   0.3191
   8.750   1.4769   0.01348   0.00814  -0.1182  0.3006  1.0001  -2.7760   0.0000   0.0000   0.0000   0.3165
   9.000   1.4882   0.01426   0.00884  -0.1159  0.2804  1.0001  -2.8835   0.0000   0.0000   0.0000   0.3140
   9.250   1.4986   0.01515   0.00963  -0.1136  0.2599  1.0001  -2.9896   0.0000   0.0000   0.0000   0.3115
   9.500   1.5083   0.01613   0.01052  -0.1114  0.2399  1.0001  -3.0946   0.0000   0.0000   0.0000   0.3091
   9.750   1.5172   0.01721   0.01151  -0.1092  0.2201  1.0001  -3.2023   0.0000   0.0000   0.0000   0.3068
  10.000   1.5257   0.01837   0.01258  -0.1070  0.2009  1.0001  -3.3126   0.0000   0.0000   0.0000   0.3045
  10.250   1.5336   0.01960   0.01373  -0.1049  0.1819  1.0001  -3.4222   0.0000   0.0000   0.0000   0.3023
  10.500   1.5409   0.02092   0.01496  -0.1029  0.1639  1.0001  -3.5307   0.0000   0.0000   0.0000   0.3002
  10.750   1.5479   0.02229   0.01625  -0.1009  0.1472  1.0001  -3.6391   0.0000   0.0000   0.0000   0.2981
  11.000   1.5541   0.02374   0.01763  -0.0988  0.1314  1.0001  -3.7459   0.0000   0.0000   0.0000   0.2961
  11.250   1.5598   0.02526   0.01907  -0.0968  0.1166  1.0001  -3.8534   0.0000   0.0000   0.0000   0.2941
  11.500   1.5654   0.02682   0.02057  -0.0949  0.1032  1.0001  -3.9666   0.0000   0.0000   0.0000   0.2922
  11.750   1.5709   0.02839   0.02210  -0.0931  0.0917  1.0001  -4.0805   0.0000   0.0000   0.0000   0.2903
  12.000   1.5760   0.03003   0.02370  -0.0912  0.0819  1.0001  -4.1942   0.0000   0.0000   0.0000   0.2885
  12.250   1.5820   0.03162   0.02527  -0.0896  0.0732  1.0001  -4.3119   0.0000   0.0000   0.0000   0.2867
  12.500   1.5871   0.03331   0.02694  -0.0879  0.0658  1.0001  -4.4270   0.0000   0.0000   0.0000   0.2850
  13.000   1.5977   0.03679   0.03042  -0.0848  0.0542  1.0001  -4.6624   0.0000   0.0000   0.0000   0.2817
  13.500   1.6092   0.04036   0.03403  -0.0822  0.0459  1.0001  -4.9195   0.0000   0.0000   0.0000   0.2786
  13.750   1.6148   0.04221   0.03591  -0.0809  0.0426  1.0001  -5.0491   0.0000   0.0000   0.0000   0.2771
  14.000   1.6191   0.04423   0.03795  -0.0797  0.0398  1.0001  -5.1737   0.0000   0.0000   0.0000   0.2757
  14.250   1.6244   0.04619   0.03995  -0.0786  0.0372  1.0001  -5.3038   0.0000   0.0000   0.0000   0.2743
  14.500   1.6288   0.04828   0.04207  -0.0775  0.0350  1.0001  -5.4302   0.0000   0.0000   0.0000   0.2730
  14.750   1.6326   0.05044   0.04428  -0.0765  0.0330  1.0001  -5.5551   0.0000   0.0000   0.0000   0.2717
  15.000   1.6360   0.05269   0.04658  -0.0755  0.0312  1.0001  -5.6820   0.0000   0.0000   0.0000   0.2704
  15.250   1.6397   0.05497   0.04891  -0.0747  0.0296  1.0001  -5.8163   0.0000   0.0000   0.0000   0.2693
  15.500   1.6394   0.05771   0.05169  -0.0738  0.0282  1.0001  -5.9304   0.0000   0.0000   0.0000   0.2681
  15.750   1.6441   0.05996   0.05401  -0.0731  0.0271  1.0001  -6.0708   0.0000   0.0000   0.0000   0.2670
  16.000   1.6458   0.06254   0.05665  -0.0724  0.0259  1.0001  -6.1972   0.0000   0.0000   0.0000   0.2660
  16.250   1.6438   0.06559   0.05975  -0.0717  0.0249  1.0001  -6.3036   0.0000   0.0000   0.0000   0.2650
  16.500   1.6455   0.06827   0.06251  -0.0712  0.0240  1.0001  -6.4299   0.0000   0.0000   0.0000   0.2641
  16.750   1.6471   0.07100   0.06532  -0.0708  0.0231  1.0001  -6.5568   0.0000   0.0000   0.0000   0.2632
  17.000   1.6463   0.07407   0.06845  -0.0704  0.0223  1.0001  -6.6709   0.0000   0.0000   0.0000   0.2624
  17.250   1.6412   0.07771   0.07216  -0.0701  0.0215  1.0001  -6.7601   0.0000   0.0000   0.0000   0.2617
  17.500   1.6397   0.08093   0.07547  -0.0700  0.0210  1.0001  -6.8682   0.0000   0.0000   0.0000   0.2610
  17.750   1.6389   0.08409   0.07872  -0.0699  0.0204  1.0001  -6.9810   0.0000   0.0000   0.0000   0.2604
  18.000   1.6370   0.08745   0.08216  -0.0699  0.0198  1.0001  -7.0956   0.0000   0.0000   0.0000   0.2598
  18.250   1.6334   0.09108   0.08587  -0.0700  0.0193  1.0001  -7.1998   0.0000   0.0000   0.0000   0.2593
  18.500   1.6274   0.09509   0.08996  -0.0703  0.0188  1.0001  -7.2875   0.0000   0.0000   0.0000   0.2590
  18.750   1.6172   0.09975   0.09469  -0.0708  0.0184  1.0001  -7.3448   0.0000   0.0000   0.0000   0.2590
  19.000   1.6127   0.10363   0.09868  -0.0714  0.0180  1.0001  -7.4381   0.0000   0.0000   0.0000   0.2588
  19.250   1.6095   0.10732   0.10246  -0.0719  0.0176  1.0001  -7.5407   0.0000   0.0000   0.0000   0.2586
  19.500   1.6053   0.11121   0.10644  -0.0726  0.0172  1.0001  -7.6354   0.0000   0.0000   0.0000   0.2585
  19.750   1.6007   0.11522   0.11055  -0.0735  0.0168  1.0001  -7.7260   0.0000   0.0000   0.0000   0.2585
  20.000   1.5953   0.11938   0.11479  -0.0745  0.0164  1.0001  -7.8103   0.0000   0.0000   0.0000   0.2586


