xflr5 v6.61

 Calculated polar for: QX0026 thickness=13.65

 1 1 Reynolds number fixed          Mach number fixed         

 xtrf =   1.000 (top)        1.000 (bottom)
 Mach =   0.000     Re =     0.700 e 6     Ncrit =   9.000

  alpha     CL        CD       CDp       Cm    Top Xtr Bot Xtr   Cpmin    Chinge    XCp    
 ------- -------- --------- --------- -------- ------- ------- -------- --------- ---------
 -10.000  -0.4738   0.02336   0.01853  -0.1294  0.8101  0.0198  -6.5133   0.0000   0.0000   0.0000  -0.0420
  -9.750  -0.4561   0.02105   0.01602  -0.1297  0.8063  0.0203  -6.3847   0.0000   0.0000   0.0000  -0.0532
  -9.500  -0.4314   0.02038   0.01529  -0.1298  0.8032  0.0207  -6.1458   0.0000   0.0000   0.0000  -0.0701
  -9.250  -0.4060   0.01979   0.01461  -0.1300  0.7999  0.0212  -5.9100   0.0000   0.0000   0.0000  -0.0896
  -9.000  -0.3808   0.01907   0.01377  -0.1301  0.7964  0.0218  -5.6912   0.0000   0.0000   0.0000  -0.1117
  -8.750  -0.3556   0.01824   0.01278  -0.1302  0.7935  0.0224  -5.4896   0.0000   0.0000   0.0000  -0.1366
  -8.500  -0.3299   0.01748   0.01184  -0.1303  0.7905  0.0229  -5.2894   0.0000   0.0000   0.0000  -0.1661
  -8.250  -0.3033   0.01692   0.01113  -0.1304  0.7872  0.0233  -5.0794   0.0000   0.0000   0.0000  -0.2019
  -8.000  -0.2790   0.01572   0.00984  -0.1304  0.7844  0.0241  -4.8947   0.0000   0.0000   0.0000  -0.2404
  -7.750  -0.2521   0.01526   0.00933  -0.1305  0.7817  0.0247  -4.6713   0.0000   0.0000   0.0000  -0.2921
  -7.500  -0.2249   0.01481   0.00882  -0.1307  0.7785  0.0255  -4.4547   0.0000   0.0000   0.0000  -0.3570
  -7.250  -0.1975   0.01439   0.00831  -0.1308  0.7756  0.0264  -4.2431   0.0000   0.0000   0.0000  -0.4404
  -7.000  -0.1695   0.01410   0.00789  -0.1309  0.7731  0.0272  -4.0424   0.0000   0.0000   0.0000  -0.5534
  -6.750  -0.1433   0.01335   0.00713  -0.1310  0.7701  0.0282  -3.8668   0.0000   0.0000   0.0000  -0.6997
  -6.500  -0.1155   0.01300   0.00676  -0.1311  0.7672  0.0292  -3.6743   0.0000   0.0000   0.0000  -0.9269
  -6.250  -0.0876   0.01268   0.00636  -0.1312  0.7646  0.0303  -3.4890   0.0000   0.0000   0.0000  -1.3011
  -6.000  -0.0593   0.01242   0.00601  -0.1313  0.7620  0.0313  -3.3066   0.0000   0.0000   0.0000  -2.0379
  -5.750  -0.0321   0.01189   0.00549  -0.1315  0.7590  0.0328  -3.1315   0.0000   0.0000   0.0000  -3.9738
  -5.500  -0.0038   0.01166   0.00523  -0.1316  0.7562  0.0344  -2.9470   0.0000   0.0000   0.0000  -35.3937
  -5.250   0.0247   0.01146   0.00495  -0.1318  0.7537  0.0360  -2.7700   0.0000   0.0000   0.0000   5.7291
  -5.000   0.0526   0.01107   0.00458  -0.1320  0.7510  0.0379  -2.6029   0.0000   0.0000   0.0000   2.8285
  -4.750   0.0810   0.01086   0.00434  -0.1321  0.7479  0.0400  -2.4462   0.0000   0.0000   0.0000   1.9217
  -4.500   0.1093   0.01057   0.00403  -0.1323  0.7452  0.0424  -2.2936   0.0000   0.0000   0.0000   1.4888
  -4.250   0.1381   0.01044   0.00384  -0.1325  0.7428  0.0454  -2.1388   0.0000   0.0000   0.0000   1.2306
  -4.000   0.1664   0.01017   0.00361  -0.1327  0.7396  0.0488  -1.9901   0.0000   0.0000   0.0000   1.0638
  -3.750   0.1950   0.00996   0.00339  -0.1329  0.7365  0.0527  -1.8440   0.0000   0.0000   0.0000   0.9445
  -3.500   0.2238   0.00979   0.00320  -0.1331  0.7339  0.0578  -1.7034   0.0000   0.0000   0.0000   0.8552
  -3.250   0.2524   0.00961   0.00304  -0.1333  0.7310  0.0644  -1.5733   0.0000   0.0000   0.0000   0.7866
  -3.000   0.2810   0.00942   0.00289  -0.1335  0.7277  0.0733  -1.4459   0.0000   0.0000   0.0000   0.7320
  -2.750   0.3097   0.00924   0.00274  -0.1337  0.7247  0.0876  -1.3204   0.0000   0.0000   0.0000   0.6874
  -2.500   0.3384   0.00906   0.00262  -0.1340  0.7221  0.1114  -1.1971   0.0000   0.0000   0.0000   0.6505
  -2.250   0.3667   0.00884   0.00254  -0.1342  0.7186  0.1457  -1.0854   0.0000   0.0000   0.0000   0.6196
  -2.000   0.3953   0.00865   0.00247  -0.1345  0.7154  0.1861  -0.9764   0.0000   0.0000   0.0000   0.5930
  -1.750   0.4241   0.00850   0.00241  -0.1348  0.7127  0.2261  -0.8692   0.0000   0.0000   0.0000   0.5699
  -1.500   0.4525   0.00835   0.00239  -0.1350  0.7093  0.2650  -0.7883   0.0000   0.0000   0.0000   0.5498
  -1.250   0.4811   0.00821   0.00236  -0.1353  0.7058  0.3057  -0.8063   0.0000   0.0000   0.0000   0.5320
  -1.000   0.5098   0.00808   0.00233  -0.1355  0.7028  0.3520  -0.8248   0.0000   0.0000   0.0000   0.5162
  -0.750   0.5382   0.00793   0.00233  -0.1358  0.6994  0.4058  -0.8435   0.0000   0.0000   0.0000   0.5021
  -0.500   0.5665   0.00775   0.00234  -0.1360  0.6957  0.4710  -0.8627   0.0000   0.0000   0.0000   0.4894
  -0.250   0.5947   0.00757   0.00235  -0.1361  0.6925  0.5494  -0.8825   0.0000   0.0000   0.0000   0.4779
   0.000   0.6222   0.00736   0.00241  -0.1362  0.6890  0.6409  -0.9023   0.0000   0.0000   0.0000   0.4674
   0.250   0.6494   0.00720   0.00246  -0.1360  0.6851  0.7201  -0.9226   0.0000   0.0000   0.0000   0.4577
   0.500   0.6762   0.00706   0.00249  -0.1357  0.6817  0.7861  -0.9432   0.0000   0.0000   0.0000   0.4485
   0.750   0.6999   0.00688   0.00255  -0.1346  0.6777  0.8669  -0.9626   0.0000   0.0000   0.0000   0.4398
   1.000   0.7309   0.00671   0.00252  -0.1349  0.6736  0.9768  -0.9868   0.0000   0.0000   0.0000   0.4317
   1.250   0.7637   0.00676   0.00250  -0.1360  0.6700  1.0001  -1.0124   0.0000   0.0000   0.0000   0.4249
   1.500   0.7918   0.00680   0.00253  -0.1361  0.6653  1.0001  -1.0359   0.0000   0.0000   0.0000   0.4184
   1.750   0.8201   0.00685   0.00254  -0.1362  0.6611  1.0001  -1.0603   0.0000   0.0000   0.0000   0.4123
   2.000   0.8482   0.00691   0.00258  -0.1363  0.6564  1.0001  -1.0853   0.0000   0.0000   0.0000   0.4066
   2.250   0.8762   0.00696   0.00261  -0.1364  0.6515  1.0001  -1.1112   0.0000   0.0000   0.0000   0.4013
   2.500   0.9043   0.00703   0.00265  -0.1365  0.6466  1.0001  -1.1379   0.0000   0.0000   0.0000   0.3962
   2.750   0.9321   0.00709   0.00270  -0.1366  0.6411  1.0001  -1.1655   0.0000   0.0000   0.0000   0.3915
   3.000   0.9600   0.00716   0.00275  -0.1366  0.6356  1.0001  -1.1940   0.0000   0.0000   0.0000   0.3870
   3.250   0.9876   0.00724   0.00280  -0.1367  0.6297  1.0001  -1.2236   0.0000   0.0000   0.0000   0.3827
   3.500   1.0152   0.00731   0.00288  -0.1367  0.6233  1.0001  -1.2545   0.0000   0.0000   0.0000   0.3786
   3.750   1.0425   0.00741   0.00294  -0.1366  0.6170  1.0001  -1.2866   0.0000   0.0000   0.0000   0.3747
   4.000   1.0697   0.00749   0.00303  -0.1366  0.6093  1.0001  -1.3204   0.0000   0.0000   0.0000   0.3710
   4.250   1.0968   0.00759   0.00312  -0.1365  0.6017  1.0001  -1.3556   0.0000   0.0000   0.0000   0.3675
   4.500   1.1235   0.00771   0.00322  -0.1364  0.5936  1.0001  -1.3926   0.0000   0.0000   0.0000   0.3641
   4.750   1.1498   0.00785   0.00332  -0.1362  0.5847  1.0001  -1.4316   0.0000   0.0000   0.0000   0.3608
   5.000   1.1760   0.00798   0.00345  -0.1360  0.5748  1.0001  -1.4730   0.0000   0.0000   0.0000   0.3577
   5.250   1.2018   0.00813   0.00358  -0.1357  0.5640  1.0001  -1.5173   0.0000   0.0000   0.0000   0.3546
   5.500   1.2271   0.00831   0.00373  -0.1353  0.5523  1.0001  -1.5658   0.0000   0.0000   0.0000   0.3516
   5.750   1.2520   0.00850   0.00391  -0.1349  0.5390  1.0001  -1.6234   0.0000   0.0000   0.0000   0.3488
   6.000   1.2761   0.00873   0.00410  -0.1344  0.5242  1.0001  -1.6969   0.0000   0.0000   0.0000   0.3459
   6.250   1.2990   0.00902   0.00432  -0.1336  0.5084  1.0001  -1.7757   0.0000   0.0000   0.0000   0.3431
   6.500   1.3215   0.00932   0.00457  -0.1328  0.4906  1.0001  -1.8590   0.0000   0.0000   0.0000   0.3404
   6.750   1.3426   0.00969   0.00486  -0.1317  0.4719  1.0001  -1.9450   0.0000   0.0000   0.0000   0.3377
   7.000   1.3626   0.01009   0.00519  -0.1305  0.4524  1.0001  -2.0351   0.0000   0.0000   0.0000   0.3349
   7.250   1.3820   0.01052   0.00554  -0.1291  0.4331  1.0001  -2.1319   0.0000   0.0000   0.0000   0.3323
   7.500   1.4011   0.01094   0.00590  -0.1278  0.4145  1.0001  -2.2364   0.0000   0.0000   0.0000   0.3297
   7.750   1.4189   0.01141   0.00630  -0.1262  0.3965  1.0001  -2.3420   0.0000   0.0000   0.0000   0.3270
   8.000   1.4336   0.01191   0.00672  -0.1241  0.3786  1.0001  -2.4462   0.0000   0.0000   0.0000   0.3242
   8.250   1.4480   0.01243   0.00720  -0.1219  0.3602  1.0001  -2.5511   0.0000   0.0000   0.0000   0.3215
   8.500   1.4613   0.01304   0.00774  -0.1197  0.3415  1.0001  -2.6562   0.0000   0.0000   0.0000   0.3188
   8.750   1.4735   0.01374   0.00836  -0.1175  0.3222  1.0001  -2.7647   0.0000   0.0000   0.0000   0.3162
   9.000   1.4847   0.01453   0.00907  -0.1152  0.3023  1.0001  -2.8717   0.0000   0.0000   0.0000   0.3136
   9.250   1.4951   0.01542   0.00988  -0.1129  0.2821  1.0001  -2.9776   0.0000   0.0000   0.0000   0.3112
   9.500   1.5047   0.01641   0.01078  -0.1107  0.2617  1.0001  -3.0820   0.0000   0.0000   0.0000   0.3088
   9.750   1.5136   0.01750   0.01178  -0.1085  0.2416  1.0001  -3.1884   0.0000   0.0000   0.0000   0.3065
  10.000   1.5217   0.01869   0.01288  -0.1063  0.2218  1.0001  -3.2971   0.0000   0.0000   0.0000   0.3042
  10.250   1.5290   0.01997   0.01407  -0.1042  0.2025  1.0001  -3.4045   0.0000   0.0000   0.0000   0.3020
  10.500   1.5358   0.02132   0.01534  -0.1021  0.1836  1.0001  -3.5111   0.0000   0.0000   0.0000   0.2999
  10.750   1.5422   0.02274   0.01667  -0.1000  0.1655  1.0001  -3.6173   0.0000   0.0000   0.0000   0.2978
  11.000   1.5481   0.02422   0.01808  -0.0980  0.1486  1.0001  -3.7225   0.0000   0.0000   0.0000   0.2958
  11.250   1.5534   0.02578   0.01956  -0.0960  0.1327  1.0001  -3.8268   0.0000   0.0000   0.0000   0.2938
  11.500   1.5581   0.02740   0.02112  -0.0940  0.1179  1.0001  -3.9366   0.0000   0.0000   0.0000   0.2919
  11.750   1.5625   0.02907   0.02273  -0.0921  0.1045  1.0001  -4.0460   0.0000   0.0000   0.0000   0.2900
  12.000   1.5668   0.03079   0.02440  -0.0902  0.0928  1.0001  -4.1558   0.0000   0.0000   0.0000   0.2881
  12.250   1.5710   0.03253   0.02610  -0.0884  0.0827  1.0001  -4.2659   0.0000   0.0000   0.0000   0.2864
  12.500   1.5757   0.03426   0.02782  -0.0867  0.0742  1.0001  -4.3786   0.0000   0.0000   0.0000   0.2846
  12.750   1.5804   0.03607   0.02962  -0.0852  0.0667  1.0001  -4.4917   0.0000   0.0000   0.0000   0.2830
  13.000   1.5848   0.03793   0.03147  -0.0836  0.0605  1.0001  -4.6048   0.0000   0.0000   0.0000   0.2813
  13.250   1.5892   0.03983   0.03337  -0.0822  0.0552  1.0001  -4.7244   0.0000   0.0000   0.0000   0.2798
  13.500   1.5939   0.04175   0.03531  -0.0809  0.0507  1.0001  -4.8478   0.0000   0.0000   0.0000   0.2783
  13.750   1.5987   0.04371   0.03730  -0.0797  0.0469  1.0001  -4.9722   0.0000   0.0000   0.0000   0.2768
  14.000   1.6027   0.04579   0.03942  -0.0785  0.0438  1.0001  -5.0935   0.0000   0.0000   0.0000   0.2754
  14.250   1.6062   0.04795   0.04161  -0.0773  0.0409  1.0001  -5.2142   0.0000   0.0000   0.0000   0.2741
  14.500   1.6105   0.05007   0.04378  -0.0763  0.0385  1.0001  -5.3379   0.0000   0.0000   0.0000   0.2727
  14.750   1.6119   0.05252   0.04626  -0.0752  0.0363  1.0001  -5.4502   0.0000   0.0000   0.0000   0.2715
  15.000   1.6164   0.05472   0.04852  -0.0744  0.0343  1.0001  -5.5761   0.0000   0.0000   0.0000   0.2703
  15.250   1.6174   0.05732   0.05116  -0.0735  0.0325  1.0001  -5.6945   0.0000   0.0000   0.0000   0.2691
  15.500   1.6200   0.05980   0.05371  -0.0728  0.0310  1.0001  -5.8209   0.0000   0.0000   0.0000   0.2680
  15.750   1.6218   0.06238   0.05635  -0.0721  0.0296  1.0001  -5.9448   0.0000   0.0000   0.0000   0.2670
  16.000   1.6191   0.06552   0.05953  -0.0714  0.0284  1.0001  -6.0449   0.0000   0.0000   0.0000   0.2660
  16.250   1.6211   0.06818   0.06228  -0.0708  0.0273  1.0001  -6.1695   0.0000   0.0000   0.0000   0.2651
  16.500   1.6220   0.07101   0.06519  -0.0704  0.0263  1.0001  -6.2890   0.0000   0.0000   0.0000   0.2642
  16.750   1.6198   0.07427   0.06851  -0.0701  0.0253  1.0001  -6.3927   0.0000   0.0000   0.0000   0.2634
  17.000   1.6148   0.07792   0.07223  -0.0698  0.0245  1.0001  -6.4787   0.0000   0.0000   0.0000   0.2628
  17.250   1.6155   0.08086   0.07527  -0.0696  0.0237  1.0001  -6.5975   0.0000   0.0000   0.0000   0.2620
  17.500   1.6144   0.08408   0.07857  -0.0695  0.0229  1.0001  -6.7066   0.0000   0.0000   0.0000   0.2614
  17.750   1.6112   0.08764   0.08220  -0.0696  0.0223  1.0001  -6.8033   0.0000   0.0000   0.0000   0.2609
  18.000   1.6041   0.09178   0.08641  -0.0698  0.0217  1.0001  -6.8756   0.0000   0.0000   0.0000   0.2606
  18.250   1.5971   0.09595   0.09067  -0.0701  0.0212  1.0001  -6.9518   0.0000   0.0000   0.0000   0.2604
  18.500   1.5951   0.09948   0.09432  -0.0705  0.0207  1.0001  -7.0598   0.0000   0.0000   0.0000   0.2600
  18.750   1.5916   0.10324   0.09817  -0.0709  0.0202  1.0001  -7.1573   0.0000   0.0000   0.0000   0.2598
  19.000   1.5872   0.10713   0.10215  -0.0715  0.0197  1.0001  -7.2490   0.0000   0.0000   0.0000   0.2596
  19.250   1.5818   0.11122   0.10632  -0.0723  0.0192  1.0001  -7.3337   0.0000   0.0000   0.0000   0.2596
  19.500   1.5746   0.11564   0.11081  -0.0733  0.0188  1.0001  -7.4032   0.0000   0.0000   0.0000   0.2598
  19.750   1.5645   0.12054   0.11578  -0.0745  0.0184  1.0001  -7.4490   0.0000   0.0000   0.0000   0.2603
  20.000   1.5575   0.12501   0.12035  -0.0758  0.0181  1.0001  -7.5130   0.0000   0.0000   0.0000   0.2606


