xflr5 v6.61

 Calculated polar for: QX0026 v42

 1 1 Reynolds number fixed          Mach number fixed         

 xtrf =   1.000 (top)        1.000 (bottom)
 Mach =   0.000     Re =     0.500 e 6     Ncrit =   9.000

  alpha     CL        CD       CDp       Cm    Top Xtr Bot Xtr   Cpmin    Chinge    XCp    
 ------- -------- --------- --------- -------- ------- ------- -------- --------- ---------
  -5.000   0.0326   0.01283   0.00596  -0.1261  0.7656  0.0397  -2.6171   0.0000   0.0000   0.0000   4.2240
  -4.500   0.0888   0.01215   0.00523  -0.1264  0.7602  0.0448  -2.3072   0.0000   0.0000   0.0000   1.7084
  -4.000   0.1452   0.01157   0.00464  -0.1267  0.7545  0.0517  -2.0063   0.0000   0.0000   0.0000   1.1414
  -3.500   0.2022   0.01104   0.00407  -0.1271  0.7495  0.0635  -1.7185   0.0000   0.0000   0.0000   0.8901
  -3.000   0.2589   0.01060   0.00371  -0.1275  0.7425  0.0847  -1.4575   0.0000   0.0000   0.0000   0.7497
  -2.500   0.3158   0.01015   0.00344  -0.1279  0.7361  0.1365  -1.2164   0.0000   0.0000   0.0000   0.6599
  -2.000   0.3729   0.00978   0.00326  -0.1284  0.7300  0.2099  -0.9877   0.0000   0.0000   0.0000   0.5974
  -1.500   0.4292   0.00934   0.00319  -0.1289  0.7226  0.3265  -0.7795   0.0000   0.0000   0.0000   0.5520
  -1.000   0.4856   0.00894   0.00313  -0.1293  0.7156  0.4561  -0.8155   0.0000   0.0000   0.0000   0.5168
  -0.500   0.5413   0.00851   0.00312  -0.1294  0.7087  0.6130  -0.8535   0.0000   0.0000   0.0000   0.4887
   0.000   0.5944   0.00816   0.00320  -0.1288  0.7009  0.7608  -0.8902   0.0000   0.0000   0.0000   0.4653
   0.500   0.6430   0.00785   0.00322  -0.1267  0.6931  0.8928  -0.9284   0.0000   0.0000   0.0000   0.4450
   1.000   0.7113   0.00773   0.00308  -0.1291  0.6845  1.0001  -0.9834   0.0000   0.0000   0.0000   0.4288
   1.500   0.7681   0.00783   0.00307  -0.1294  0.6759  1.0001  -1.0320   0.0000   0.0000   0.0000   0.4151
   2.000   0.8247   0.00796   0.00310  -0.1297  0.6665  1.0001  -1.0835   0.0000   0.0000   0.0000   0.4032
   2.500   0.8805   0.00810   0.00318  -0.1298  0.6558  1.0001  -1.1427   0.0000   0.0000   0.0000   0.3928
   3.000   0.9358   0.00822   0.00329  -0.1299  0.6442  1.0001  -1.2020   0.0000   0.0000   0.0000   0.3835
   3.500   0.9908   0.00834   0.00341  -0.1299  0.6312  1.0001  -1.2615   0.0000   0.0000   0.0000   0.3752
   4.000   1.0450   0.00848   0.00353  -0.1297  0.6158  1.0001  -1.3290   0.0000   0.0000   0.0000   0.3676
   4.500   1.0986   0.00869   0.00371  -0.1295  0.5994  1.0001  -1.4056   0.0000   0.0000   0.0000   0.3607
   5.000   1.1512   0.00896   0.00394  -0.1291  0.5815  1.0001  -1.5198   0.0000   0.0000   0.0000   0.3543
   5.500   1.2026   0.00927   0.00425  -0.1285  0.5606  1.0001  -1.6532   0.0000   0.0000   0.0000   0.3483
   6.000   1.2523   0.00966   0.00460  -0.1277  0.5365  1.0001  -1.7870   0.0000   0.0000   0.0000   0.3427
   6.500   1.2992   0.01018   0.00506  -0.1264  0.5071  1.0001  -1.9195   0.0000   0.0000   0.0000   0.3373
   7.000   1.3427   0.01084   0.00563  -0.1245  0.4723  1.0001  -2.0682   0.0000   0.0000   0.0000   0.3321
   7.500   1.3802   0.01175   0.00639  -0.1217  0.4321  1.0001  -2.2977   0.0000   0.0000   0.0000   0.3268
   8.000   1.4107   0.01289   0.00735  -0.1178  0.3867  1.0001  -2.5167   0.0000   0.0000   0.0000   0.3213
   8.500   1.4328   0.01425   0.00856  -0.1127  0.3456  1.0001  -2.7199   0.0000   0.0000   0.0000   0.3157
   9.000   1.4524   0.01600   0.01012  -0.1079  0.3030  1.0001  -2.9200   0.0000   0.0000   0.0000   0.3105
   9.500   1.4733   0.01794   0.01196  -0.1038  0.2670  1.0001  -3.1268   0.0000   0.0000   0.0000   0.3058
  10.000   1.4889   0.02041   0.01425  -0.0996  0.2276  1.0001  -3.3219   0.0000   0.0000   0.0000   0.3014
  10.500   1.5058   0.02296   0.01671  -0.0960  0.1942  1.0001  -3.5325   0.0000   0.0000   0.0000   0.2973
  11.000   1.5181   0.02596   0.01956  -0.0922  0.1601  1.0001  -3.7513   0.0000   0.0000   0.0000   0.2933
  11.500   1.5300   0.02909   0.02261  -0.0886  0.1341  1.0001  -3.9717   0.0000   0.0000   0.0000   0.2896
  12.500   1.5455   0.03631   0.02967  -0.0817  0.0871  1.0001  -4.3900   0.0000   0.0000   0.0000   0.2826
  13.000   1.5553   0.03999   0.03338  -0.0789  0.0723  1.0001  -4.6092   0.0000   0.0000   0.0000   0.2794
  13.500   1.5636   0.04399   0.03740  -0.0764  0.0602  1.0001  -4.8240   0.0000   0.0000   0.0000   0.2765
  14.000   1.5681   0.04855   0.04200  -0.0740  0.0510  1.0001  -5.0319   0.0000   0.0000   0.0000   0.2738
  14.500   1.5691   0.05366   0.04717  -0.0718  0.0434  1.0001  -5.2396   0.0000   0.0000   0.0000   0.2713
  15.000   1.5742   0.05858   0.05218  -0.0702  0.0359  1.0001  -5.4916   0.0000   0.0000   0.0000   0.2690
  15.500   1.5707   0.06464   0.05836  -0.0688  0.0313  1.0001  -5.6963   0.0000   0.0000   0.0000   0.2670
  16.000   1.5673   0.07095   0.06484  -0.0678  0.0285  1.0001  -5.9022   0.0000   0.0000   0.0000   0.2653
  16.500   1.5599   0.07800   0.07201  -0.0673  0.0267  1.0001  -6.0875   0.0000   0.0000   0.0000   0.2640
  17.000   1.5552   0.08486   0.07908  -0.0671  0.0253  1.0001  -6.2830   0.0000   0.0000   0.0000   0.2629
  17.500   1.5483   0.09223   0.08662  -0.0675  0.0241  1.0001  -6.4681   0.0000   0.0000   0.0000   0.2621
  18.000   1.5330   0.10093   0.09546  -0.0685  0.0231  1.0001  -6.5960   0.0000   0.0000   0.0000   0.2620
  18.500   1.5271   0.10844   0.10319  -0.0696  0.0222  1.0001  -6.7744   0.0000   0.0000   0.0000   0.2617
  19.000   1.5192   0.11640   0.11133  -0.0713  0.0214  1.0001  -6.9365   0.0000   0.0000   0.0000   0.2618
  19.500   1.5109   0.12452   0.11962  -0.0736  0.0206  1.0001  -7.0933   0.0000   0.0000   0.0000   0.2622
  20.000   1.5011   0.13273   0.12792  -0.0760  0.0199  1.0001  -7.2386   0.0000   0.0000   0.0000   0.2628


