xflr5 v6.61

 Calculated polar for: QX0026 thickness=13.65

 1 1 Reynolds number fixed          Mach number fixed         

 xtrf =   1.000 (top)        1.000 (bottom)
 Mach =   0.000     Re =     0.380 e 6     Ncrit =   9.000

  alpha     CL        CD       CDp       Cm    Top Xtr Bot Xtr   Cpmin    Chinge    XCp    
 ------- -------- --------- --------- -------- ------- ------- -------- --------- ---------
  -8.750  -0.2798   0.03999   0.03621  -0.1279  0.8332  0.0309  -4.0484   0.0000   0.0000   0.0000  -0.2307
  -8.500  -0.2798   0.03354   0.02923  -0.1313  0.8292  0.0304  -4.2150   0.0000   0.0000   0.0000  -0.2426
  -8.250  -0.2721   0.02814   0.02316  -0.1329  0.8248  0.0305  -4.3382   0.0000   0.0000   0.0000  -0.2620
  -8.000  -0.2552   0.02482   0.01920  -0.1333  0.8216  0.0310  -4.3406   0.0000   0.0000   0.0000  -0.2968
  -7.750  -0.2341   0.02262   0.01659  -0.1335  0.8180  0.0317  -4.2546   0.0000   0.0000   0.0000  -0.3459
  -7.500  -0.2089   0.02181   0.01577  -0.1336  0.8146  0.0326  -4.0535   0.0000   0.0000   0.0000  -0.4172
  -7.250  -0.1830   0.02109   0.01494  -0.1337  0.8119  0.0337  -3.8668   0.0000   0.0000   0.0000  -0.5109
  -7.000  -0.1579   0.01993   0.01352  -0.1337  0.8084  0.0348  -3.7253   0.0000   0.0000   0.0000  -0.6309
  -6.750  -0.1318   0.01894   0.01219  -0.1337  0.8051  0.0358  -3.5911   0.0000   0.0000   0.0000  -0.8030
  -6.500  -0.1059   0.01783   0.01103  -0.1337  0.8025  0.0369  -3.4414   0.0000   0.0000   0.0000  -1.0596
  -6.250  -0.0791   0.01726   0.01041  -0.1338  0.7991  0.0382  -3.2769   0.0000   0.0000   0.0000  -1.5003
  -6.000  -0.0519   0.01673   0.00975  -0.1338  0.7959  0.0399  -3.1220   0.0000   0.0000   0.0000  -2.4170
  -5.750  -0.0248   0.01602   0.00894  -0.1338  0.7933  0.0416  -2.9693   0.0000   0.0000   0.0000  -5.3180
  -5.500   0.0024   0.01556   0.00846  -0.1339  0.7902  0.0433  -2.8062   0.0000   0.0000   0.0000  57.8115
  -5.250   0.0300   0.01512   0.00792  -0.1339  0.7869  0.0453  -2.6546   0.0000   0.0000   0.0000   4.8485
  -5.000   0.0572   0.01456   0.00736  -0.1340  0.7842  0.0475  -2.4977   0.0000   0.0000   0.0000   2.6560
  -4.750   0.0852   0.01426   0.00700  -0.1340  0.7815  0.0505  -2.3526   0.0000   0.0000   0.0000   1.8644
  -4.500   0.1122   0.01381   0.00658  -0.1341  0.7780  0.0533  -2.2150   0.0000   0.0000   0.0000   1.4740
  -4.250   0.1404   0.01353   0.00622  -0.1341  0.7752  0.0568  -2.0777   0.0000   0.0000   0.0000   1.2273
  -4.000   0.1685   0.01315   0.00586  -0.1343  0.7729  0.0611  -1.9368   0.0000   0.0000   0.0000   1.0643
  -3.750   0.1957   0.01286   0.00560  -0.1344  0.7690  0.0662  -1.8018   0.0000   0.0000   0.0000   0.9502
  -3.500   0.2238   0.01257   0.00532  -0.1345  0.7660  0.0725  -1.6705   0.0000   0.0000   0.0000   0.8620
  -3.250   0.2524   0.01231   0.00504  -0.1347  0.7635  0.0813  -1.5479   0.0000   0.0000   0.0000   0.7925
  -3.000   0.2800   0.01205   0.00486  -0.1348  0.7599  0.0934  -1.4292   0.0000   0.0000   0.0000   0.7387
  -2.750   0.3080   0.01177   0.00466  -0.1349  0.7566  0.1143  -1.3109   0.0000   0.0000   0.0000   0.6941
  -2.500   0.3365   0.01146   0.00448  -0.1352  0.7539  0.1533  -1.1922   0.0000   0.0000   0.0000   0.6567
  -2.250   0.3642   0.01122   0.00443  -0.1354  0.7505  0.2052  -1.0844   0.0000   0.0000   0.0000   0.6256
  -2.000   0.3922   0.01103   0.00438  -0.1356  0.7469  0.2544  -0.9777   0.0000   0.0000   0.0000   0.5988
  -1.750   0.4208   0.01084   0.00430  -0.1358  0.7441  0.3022  -0.8716   0.0000   0.0000   0.0000   0.5751
  -1.500   0.4488   0.01068   0.00429  -0.1360  0.7408  0.3536  -0.7812   0.0000   0.0000   0.0000   0.5547
  -1.250   0.4764   0.01050   0.00429  -0.1361  0.7370  0.4130  -0.7987   0.0000   0.0000   0.0000   0.5368
  -1.000   0.5045   0.01027   0.00425  -0.1362  0.7341  0.4867  -0.8172   0.0000   0.0000   0.0000   0.5206
  -0.750   0.5316   0.01005   0.00430  -0.1362  0.7307  0.5740  -0.8354   0.0000   0.0000   0.0000   0.5062
  -0.500   0.5575   0.00983   0.00438  -0.1357  0.7267  0.6709  -0.8534   0.0000   0.0000   0.0000   0.4931
  -0.250   0.5833   0.00961   0.00438  -0.1351  0.7237  0.7575  -0.8721   0.0000   0.0000   0.0000   0.4808
   0.000   0.6058   0.00943   0.00444  -0.1336  0.7200  0.8412  -0.8894   0.0000   0.0000   0.0000   0.4693
   0.250   0.6343   0.00923   0.00440  -0.1331  0.7161  0.9494  -0.9105   0.0000   0.0000   0.0000   0.4583
   0.500   0.6742   0.00920   0.00428  -0.1356  0.7130  1.0001  -0.9382   0.0000   0.0000   0.0000   0.4493
   0.750   0.7016   0.00927   0.00431  -0.1357  0.7087  1.0001  -0.9594   0.0000   0.0000   0.0000   0.4411
   1.000   0.7297   0.00932   0.00430  -0.1358  0.7046  1.0001  -0.9818   0.0000   0.0000   0.0000   0.4334
   1.250   0.7589   0.00936   0.00425  -0.1360  0.7013  1.0001  -1.0055   0.0000   0.0000   0.0000   0.4262
   1.500   0.7858   0.00943   0.00432  -0.1359  0.6963  1.0001  -1.0282   0.0000   0.0000   0.0000   0.4196
   1.750   0.8146   0.00947   0.00429  -0.1361  0.6925  1.0001  -1.0530   0.0000   0.0000   0.0000   0.4134
   2.000   0.8420   0.00954   0.00435  -0.1361  0.6878  1.0001  -1.0775   0.0000   0.0000   0.0000   0.4076
   2.250   0.8701   0.00958   0.00435  -0.1362  0.6832  1.0001  -1.1034   0.0000   0.0000   0.0000   0.4022
   2.500   0.8981   0.00964   0.00438  -0.1362  0.6787  1.0001  -1.1301   0.0000   0.0000   0.0000   0.3970
   2.750   0.9255   0.00969   0.00442  -0.1362  0.6734  1.0001  -1.1573   0.0000   0.0000   0.0000   0.3922
   3.000   0.9536   0.00975   0.00444  -0.1363  0.6687  1.0001  -1.1861   0.0000   0.0000   0.0000   0.3876
   3.250   0.9806   0.00980   0.00449  -0.1361  0.6628  1.0001  -1.2152   0.0000   0.0000   0.0000   0.3832
   3.500   1.0082   0.00986   0.00454  -0.1361  0.6575  1.0001  -1.2461   0.0000   0.0000   0.0000   0.3791
   3.750   1.0354   0.00991   0.00459  -0.1360  0.6513  1.0001  -1.2780   0.0000   0.0000   0.0000   0.3751
   4.000   1.0621   0.00998   0.00466  -0.1359  0.6449  1.0001  -1.3112   0.0000   0.0000   0.0000   0.3713
   4.250   1.0897   0.01004   0.00469  -0.1358  0.6389  1.0001  -1.3468   0.0000   0.0000   0.0000   0.3677
   4.500   1.1155   0.01012   0.00480  -0.1355  0.6312  1.0001  -1.3828   0.0000   0.0000   0.0000   0.3642
   4.750   1.1418   0.01020   0.00488  -0.1352  0.6237  1.0001  -1.4214   0.0000   0.0000   0.0000   0.3609
   5.000   1.1682   0.01029   0.00496  -0.1350  0.6161  1.0001  -1.4627   0.0000   0.0000   0.0000   0.3577
   5.250   1.1939   0.01039   0.00506  -0.1347  0.6073  1.0001  -1.5065   0.0000   0.0000   0.0000   0.3545
   5.500   1.2190   0.01051   0.00520  -0.1342  0.5978  1.0001  -1.5541   0.0000   0.0000   0.0000   0.3515
   5.750   1.2438   0.01064   0.00534  -0.1337  0.5877  1.0001  -1.6094   0.0000   0.0000   0.0000   0.3486
   6.000   1.2683   0.01080   0.00549  -0.1332  0.5768  1.0001  -1.6804   0.0000   0.0000   0.0000   0.3457
   6.250   1.2922   0.01097   0.00566  -0.1325  0.5652  1.0001  -1.7596   0.0000   0.0000   0.0000   0.3429
   6.500   1.3153   0.01118   0.00585  -0.1317  0.5526  1.0001  -1.8429   0.0000   0.0000   0.0000   0.3401
   6.750   1.3376   0.01141   0.00608  -0.1308  0.5383  1.0001  -1.9297   0.0000   0.0000   0.0000   0.3374
   7.000   1.3587   0.01169   0.00633  -0.1297  0.5226  1.0001  -2.0210   0.0000   0.0000   0.0000   0.3347
   7.250   1.3785   0.01202   0.00662  -0.1283  0.5057  1.0001  -2.1178   0.0000   0.0000   0.0000   0.3320
   7.500   1.3966   0.01243   0.00696  -0.1267  0.4877  1.0001  -2.2185   0.0000   0.0000   0.0000   0.3292
   7.750   1.4138   0.01286   0.00735  -0.1250  0.4691  1.0001  -2.3205   0.0000   0.0000   0.0000   0.3265
   8.000   1.4294   0.01335   0.00778  -0.1230  0.4512  1.0001  -2.4262   0.0000   0.0000   0.0000   0.3238
   8.250   1.4421   0.01387   0.00826  -0.1205  0.4338  1.0001  -2.5267   0.0000   0.0000   0.0000   0.3209
   8.500   1.4541   0.01444   0.00879  -0.1180  0.4164  1.0001  -2.6266   0.0000   0.0000   0.0000   0.3181
   8.750   1.4648   0.01513   0.00942  -0.1154  0.3991  1.0001  -2.7289   0.0000   0.0000   0.0000   0.3153
   9.000   1.4753   0.01587   0.01012  -0.1129  0.3810  1.0001  -2.8332   0.0000   0.0000   0.0000   0.3126
   9.250   1.4848   0.01672   0.01093  -0.1105  0.3628  1.0001  -2.9361   0.0000   0.0000   0.0000   0.3101
   9.500   1.4932   0.01770   0.01185  -0.1080  0.3442  1.0001  -3.0366   0.0000   0.0000   0.0000   0.3076
   9.750   1.5007   0.01880   0.01289  -0.1056  0.3251  1.0001  -3.1352   0.0000   0.0000   0.0000   0.3052
  10.000   1.5074   0.02002   0.01405  -0.1033  0.3057  1.0001  -3.2374   0.0000   0.0000   0.0000   0.3028
  10.250   1.5133   0.02135   0.01531  -0.1010  0.2859  1.0001  -3.3394   0.0000   0.0000   0.0000   0.3006
  10.500   1.5187   0.02278   0.01668  -0.0988  0.2660  1.0001  -3.4404   0.0000   0.0000   0.0000   0.2985
  10.750   1.5233   0.02432   0.01814  -0.0966  0.2460  1.0001  -3.5394   0.0000   0.0000   0.0000   0.2964
  11.000   1.5273   0.02595   0.01970  -0.0944  0.2263  1.0001  -3.6370   0.0000   0.0000   0.0000   0.2943
  11.250   1.5304   0.02767   0.02135  -0.0923  0.2069  1.0001  -3.7323   0.0000   0.0000   0.0000   0.2923
  11.500   1.5327   0.02950   0.02310  -0.0902  0.1879  1.0001  -3.8257   0.0000   0.0000   0.0000   0.2904
  11.750   1.5343   0.03142   0.02495  -0.0882  0.1697  1.0001  -3.9231   0.0000   0.0000   0.0000   0.2885
  12.000   1.5352   0.03343   0.02689  -0.0861  0.1524  1.0001  -4.0178   0.0000   0.0000   0.0000   0.2866
  12.250   1.5357   0.03553   0.02891  -0.0842  0.1361  1.0001  -4.1116   0.0000   0.0000   0.0000   0.2848
  12.500   1.5363   0.03769   0.03102  -0.0824  0.1209  1.0001  -4.2056   0.0000   0.0000   0.0000   0.2831
  12.750   1.5363   0.03995   0.03322  -0.0806  0.1075  1.0001  -4.2975   0.0000   0.0000   0.0000   0.2815
  13.000   1.5368   0.04224   0.03549  -0.0790  0.0956  1.0001  -4.3907   0.0000   0.0000   0.0000   0.2799
  13.250   1.5372   0.04461   0.03784  -0.0775  0.0857  1.0001  -4.4837   0.0000   0.0000   0.0000   0.2784
  13.500   1.5374   0.04707   0.04029  -0.0761  0.0775  1.0001  -4.5766   0.0000   0.0000   0.0000   0.2770
  13.750   1.5371   0.04961   0.04283  -0.0748  0.0710  1.0001  -4.6736   0.0000   0.0000   0.0000   0.2756
  14.000   1.5372   0.05219   0.04543  -0.0736  0.0655  1.0001  -4.7717   0.0000   0.0000   0.0000   0.2743
  14.250   1.5377   0.05481   0.04808  -0.0726  0.0608  1.0001  -4.8711   0.0000   0.0000   0.0000   0.2731
  14.500   1.5378   0.05752   0.05083  -0.0716  0.0567  1.0001  -4.9690   0.0000   0.0000   0.0000   0.2719
  14.750   1.5363   0.06046   0.05380  -0.0708  0.0535  1.0001  -5.0596   0.0000   0.0000   0.0000   0.2708
  15.000   1.5360   0.06330   0.05670  -0.0700  0.0504  1.0001  -5.1557   0.0000   0.0000   0.0000   0.2698
  15.250   1.5350   0.06629   0.05975  -0.0693  0.0477  1.0001  -5.2474   0.0000   0.0000   0.0000   0.2688
  15.500   1.5330   0.06946   0.06297  -0.0688  0.0454  1.0001  -5.3355   0.0000   0.0000   0.0000   0.2679
  15.750   1.5315   0.07262   0.06621  -0.0683  0.0433  1.0001  -5.4258   0.0000   0.0000   0.0000   0.2671
  16.000   1.5300   0.07583   0.06950  -0.0680  0.0414  1.0001  -5.5225   0.0000   0.0000   0.0000   0.2664
  16.250   1.5246   0.07953   0.07324  -0.0677  0.0400  1.0001  -5.5983   0.0000   0.0000   0.0000   0.2657
  16.500   1.5245   0.08265   0.07647  -0.0675  0.0383  1.0001  -5.6992   0.0000   0.0000   0.0000   0.2651
  16.750   1.5216   0.08615   0.08003  -0.0675  0.0369  1.0001  -5.7886   0.0000   0.0000   0.0000   0.2645
  17.000   1.5163   0.09000   0.08392  -0.0675  0.0357  1.0001  -5.8617   0.0000   0.0000   0.0000   0.2641
  17.250   1.5159   0.09329   0.08733  -0.0676  0.0344  1.0001  -5.9598   0.0000   0.0000   0.0000   0.2636
  17.500   1.5137   0.09682   0.09093  -0.0679  0.0332  1.0001  -6.0505   0.0000   0.0000   0.0000   0.2632
  17.750   1.5088   0.10066   0.09480  -0.0682  0.0323  1.0001  -6.1254   0.0000   0.0000   0.0000   0.2630
  18.000   1.5066   0.10418   0.09843  -0.0685  0.0313  1.0001  -6.2103   0.0000   0.0000   0.0000   0.2627
  18.250   1.5053   0.10766   0.10202  -0.0690  0.0304  1.0001  -6.2998   0.0000   0.0000   0.0000   0.2624
  18.500   1.5035   0.11121   0.10563  -0.0696  0.0295  1.0001  -6.3889   0.0000   0.0000   0.0000   0.2622
  18.750   1.5014   0.11477   0.10923  -0.0702  0.0287  1.0001  -6.4778   0.0000   0.0000   0.0000   0.2621
  19.000   1.4996   0.11817   0.11267  -0.0708  0.0280  1.0001  -6.5719   0.0000   0.0000   0.0000   0.2619
  19.250   1.4986   0.12174   0.11638  -0.0717  0.0272  1.0001  -6.6670   0.0000   0.0000   0.0000   0.2619
  19.500   1.4978   0.12526   0.12000  -0.0726  0.0264  1.0001  -6.7648   0.0000   0.0000   0.0000   0.2619
  19.750   1.4971   0.12870   0.12349  -0.0736  0.0257  1.0001  -6.8663   0.0000   0.0000   0.0000   0.2619
  20.000   1.4972   0.13190   0.12671  -0.0745  0.0251  1.0001  -6.9743   0.0000   0.0000   0.0000   0.2619


