xflr5 v6.61

 Calculated polar for: QX0026 thickness=13.65

 1 1 Reynolds number fixed          Mach number fixed         

 xtrf =   1.000 (top)        1.000 (bottom)
 Mach =   0.000     Re =     0.725 e 6     Ncrit =   9.000

  alpha     CL        CD       CDp       Cm    Top Xtr Bot Xtr   Cpmin    Chinge    XCp    
 ------- -------- --------- --------- -------- ------- ------- -------- --------- ---------
 -10.000  -0.4772   0.02252   0.01770  -0.1294  0.8078  0.0196  -6.5666   0.0000   0.0000   0.0000  -0.0399
  -9.750  -0.4572   0.02070   0.01561  -0.1296  0.8044  0.0200  -6.4201   0.0000   0.0000   0.0000  -0.0522
  -9.500  -0.4338   0.01970   0.01452  -0.1297  0.8014  0.0205  -6.2017   0.0000   0.0000   0.0000  -0.0681
  -9.250  -0.4082   0.01914   0.01392  -0.1299  0.7977  0.0210  -5.9584   0.0000   0.0000   0.0000  -0.0876
  -9.000  -0.3826   0.01853   0.01320  -0.1300  0.7946  0.0215  -5.7300   0.0000   0.0000   0.0000  -0.1097
  -8.750  -0.3570   0.01781   0.01234  -0.1301  0.7918  0.0221  -5.5180   0.0000   0.0000   0.0000  -0.1348
  -8.500  -0.3312   0.01707   0.01147  -0.1302  0.7885  0.0226  -5.3121   0.0000   0.0000   0.0000  -0.1642
  -8.250  -0.3047   0.01648   0.01072  -0.1303  0.7854  0.0231  -5.1025   0.0000   0.0000   0.0000  -0.1995
  -8.000  -0.2796   0.01548   0.00958  -0.1303  0.7828  0.0238  -4.9136   0.0000   0.0000   0.0000  -0.2389
  -7.750  -0.2530   0.01491   0.00900  -0.1304  0.7796  0.0245  -4.6934   0.0000   0.0000   0.0000  -0.2897
  -7.500  -0.2257   0.01450   0.00853  -0.1305  0.7767  0.0252  -4.4722   0.0000   0.0000   0.0000  -0.3542
  -7.250  -0.1983   0.01411   0.00806  -0.1306  0.7740  0.0260  -4.2572   0.0000   0.0000   0.0000  -0.4372
  -7.000  -0.1704   0.01379   0.00764  -0.1308  0.7713  0.0269  -4.0569   0.0000   0.0000   0.0000  -0.5486
  -6.750  -0.1437   0.01313   0.00694  -0.1308  0.7682  0.0279  -3.8802   0.0000   0.0000   0.0000  -0.6960
  -6.500  -0.1161   0.01277   0.00654  -0.1310  0.7655  0.0289  -3.6868   0.0000   0.0000   0.0000  -0.9205
  -6.250  -0.0881   0.01247   0.00618  -0.1311  0.7631  0.0300  -3.4981   0.0000   0.0000   0.0000  -1.2917
  -6.000  -0.0599   0.01218   0.00584  -0.1313  0.7601  0.0311  -3.3152   0.0000   0.0000   0.0000  -2.0137
  -5.750  -0.0324   0.01171   0.00534  -0.1314  0.7572  0.0324  -3.1399   0.0000   0.0000   0.0000  -3.9302
  -5.500  -0.0041   0.01147   0.00508  -0.1316  0.7546  0.0340  -2.9537   0.0000   0.0000   0.0000  -32.6182
  -5.250   0.0244   0.01129   0.00483  -0.1317  0.7521  0.0356  -2.7747   0.0000   0.0000   0.0000   5.7941
  -5.000   0.0523   0.01091   0.00446  -0.1319  0.7491  0.0375  -2.6088   0.0000   0.0000   0.0000   2.8393
  -4.750   0.0808   0.01070   0.00422  -0.1321  0.7462  0.0396  -2.4502   0.0000   0.0000   0.0000   1.9251
  -4.500   0.1093   0.01044   0.00392  -0.1323  0.7437  0.0420  -2.2975   0.0000   0.0000   0.0000   1.4892
  -4.250   0.1379   0.01027   0.00375  -0.1325  0.7409  0.0449  -2.1421   0.0000   0.0000   0.0000   1.2320
  -4.000   0.1663   0.01003   0.00351  -0.1326  0.7378  0.0482  -1.9928   0.0000   0.0000   0.0000   1.0640
  -3.750   0.1950   0.00984   0.00330  -0.1328  0.7350  0.0521  -1.8457   0.0000   0.0000   0.0000   0.9441
  -3.500   0.2238   0.00971   0.00313  -0.1331  0.7324  0.0570  -1.7044   0.0000   0.0000   0.0000   0.8548
  -3.250   0.2523   0.00950   0.00297  -0.1332  0.7291  0.0635  -1.5746   0.0000   0.0000   0.0000   0.7865
  -3.000   0.2810   0.00931   0.00281  -0.1335  0.7260  0.0723  -1.4467   0.0000   0.0000   0.0000   0.7318
  -2.750   0.3098   0.00914   0.00267  -0.1337  0.7233  0.0862  -1.3208   0.0000   0.0000   0.0000   0.6872
  -2.500   0.3383   0.00894   0.00256  -0.1339  0.7202  0.1094  -1.1977   0.0000   0.0000   0.0000   0.6504
  -2.250   0.3668   0.00873   0.00247  -0.1342  0.7169  0.1427  -1.0856   0.0000   0.0000   0.0000   0.6194
  -2.000   0.3954   0.00855   0.00240  -0.1345  0.7139  0.1827  -0.9763   0.0000   0.0000   0.0000   0.5928
  -1.750   0.4241   0.00840   0.00235  -0.1347  0.7110  0.2222  -0.8693   0.0000   0.0000   0.0000   0.5697
  -1.500   0.4526   0.00825   0.00233  -0.1350  0.7075  0.2605  -0.7885   0.0000   0.0000   0.0000   0.5496
  -1.250   0.4813   0.00811   0.00229  -0.1352  0.7042  0.3008  -0.8066   0.0000   0.0000   0.0000   0.5318
  -1.000   0.5100   0.00800   0.00226  -0.1355  0.7013  0.3458  -0.8251   0.0000   0.0000   0.0000   0.5160
  -0.750   0.5384   0.00783   0.00227  -0.1357  0.6976  0.3983  -0.8437   0.0000   0.0000   0.0000   0.5020
  -0.500   0.5667   0.00766   0.00227  -0.1360  0.6941  0.4614  -0.8630   0.0000   0.0000   0.0000   0.4893
  -0.250   0.5951   0.00750   0.00228  -0.1362  0.6911  0.5381  -0.8828   0.0000   0.0000   0.0000   0.4778
   0.000   0.6226   0.00728   0.00234  -0.1362  0.6871  0.6277  -0.9027   0.0000   0.0000   0.0000   0.4673
   0.250   0.6500   0.00711   0.00238  -0.1361  0.6835  0.7102  -0.9230   0.0000   0.0000   0.0000   0.4576
   0.500   0.6770   0.00699   0.00242  -0.1358  0.6801  0.7749  -0.9437   0.0000   0.0000   0.0000   0.4485
   0.750   0.7015   0.00681   0.00248  -0.1350  0.6759  0.8509  -0.9636   0.0000   0.0000   0.0000   0.4399
   1.000   0.7269   0.00663   0.00247  -0.1340  0.6721  0.9563  -0.9847   0.0000   0.0000   0.0000   0.4315
   1.250   0.7638   0.00664   0.00245  -0.1360  0.6681  1.0001  -1.0125   0.0000   0.0000   0.0000   0.4249
   1.500   0.7920   0.00669   0.00247  -0.1361  0.6635  1.0001  -1.0361   0.0000   0.0000   0.0000   0.4184
   1.750   0.8204   0.00676   0.00248  -0.1363  0.6596  1.0001  -1.0606   0.0000   0.0000   0.0000   0.4123
   2.000   0.8484   0.00680   0.00252  -0.1364  0.6545  1.0001  -1.0856   0.0000   0.0000   0.0000   0.4066
   2.250   0.8766   0.00686   0.00254  -0.1365  0.6500  1.0001  -1.1115   0.0000   0.0000   0.0000   0.4012
   2.500   0.9045   0.00692   0.00259  -0.1366  0.6446  1.0001  -1.1382   0.0000   0.0000   0.0000   0.3962
   2.750   0.9325   0.00699   0.00263  -0.1366  0.6395  1.0001  -1.1658   0.0000   0.0000   0.0000   0.3914
   3.000   0.9603   0.00705   0.00269  -0.1367  0.6336  1.0001  -1.1943   0.0000   0.0000   0.0000   0.3869
   3.250   0.9879   0.00714   0.00274  -0.1367  0.6280  1.0001  -1.2240   0.0000   0.0000   0.0000   0.3827
   3.500   1.0155   0.00721   0.00282  -0.1367  0.6212  1.0001  -1.2549   0.0000   0.0000   0.0000   0.3786
   3.750   1.0429   0.00730   0.00289  -0.1367  0.6147  1.0001  -1.2870   0.0000   0.0000   0.0000   0.3747
   4.000   1.0700   0.00740   0.00296  -0.1367  0.6074  1.0001  -1.3207   0.0000   0.0000   0.0000   0.3710
   4.250   1.0972   0.00749   0.00306  -0.1366  0.5994  1.0001  -1.3560   0.0000   0.0000   0.0000   0.3675
   4.500   1.1240   0.00761   0.00316  -0.1365  0.5911  1.0001  -1.3931   0.0000   0.0000   0.0000   0.3641
   4.750   1.1504   0.00774   0.00327  -0.1363  0.5821  1.0001  -1.4322   0.0000   0.0000   0.0000   0.3609
   5.000   1.1765   0.00788   0.00340  -0.1361  0.5723  1.0001  -1.4735   0.0000   0.0000   0.0000   0.3577
   5.250   1.2023   0.00804   0.00353  -0.1358  0.5613  1.0001  -1.5179   0.0000   0.0000   0.0000   0.3546
   5.500   1.2277   0.00821   0.00368  -0.1355  0.5491  1.0001  -1.5666   0.0000   0.0000   0.0000   0.3517
   5.750   1.2525   0.00842   0.00385  -0.1350  0.5355  1.0001  -1.6241   0.0000   0.0000   0.0000   0.3488
   6.000   1.2763   0.00867   0.00405  -0.1344  0.5207  1.0001  -1.6973   0.0000   0.0000   0.0000   0.3460
   6.250   1.2996   0.00894   0.00427  -0.1337  0.5044  1.0001  -1.7769   0.0000   0.0000   0.0000   0.3432
   6.500   1.3214   0.00928   0.00454  -0.1328  0.4867  1.0001  -1.8591   0.0000   0.0000   0.0000   0.3404
   6.750   1.3428   0.00963   0.00482  -0.1318  0.4675  1.0001  -1.9455   0.0000   0.0000   0.0000   0.3377
   7.000   1.3631   0.01003   0.00514  -0.1306  0.4478  1.0001  -2.0363   0.0000   0.0000   0.0000   0.3350
   7.250   1.3827   0.01045   0.00549  -0.1293  0.4288  1.0001  -2.1336   0.0000   0.0000   0.0000   0.3323
   7.500   1.4012   0.01090   0.00587  -0.1278  0.4104  1.0001  -2.2369   0.0000   0.0000   0.0000   0.3297
   7.750   1.4194   0.01135   0.00625  -0.1264  0.3920  1.0001  -2.3436   0.0000   0.0000   0.0000   0.3271
   8.000   1.4348   0.01183   0.00667  -0.1243  0.3741  1.0001  -2.4495   0.0000   0.0000   0.0000   0.3243
   8.250   1.4485   0.01238   0.00715  -0.1221  0.3559  1.0001  -2.5528   0.0000   0.0000   0.0000   0.3216
   8.500   1.4616   0.01300   0.00770  -0.1198  0.3370  1.0001  -2.6574   0.0000   0.0000   0.0000   0.3189
   8.750   1.4740   0.01369   0.00832  -0.1176  0.3174  1.0001  -2.7665   0.0000   0.0000   0.0000   0.3163
   9.000   1.4853   0.01448   0.00902  -0.1153  0.2974  1.0001  -2.8738   0.0000   0.0000   0.0000   0.3137
   9.250   1.4957   0.01537   0.00983  -0.1130  0.2773  1.0001  -2.9796   0.0000   0.0000   0.0000   0.3112
   9.750   1.5142   0.01745   0.01173  -0.1086  0.2370  1.0001  -3.1910   0.0000   0.0000   0.0000   0.3065
  10.000   1.5226   0.01861   0.01281  -0.1065  0.2171  1.0001  -3.3007   0.0000   0.0000   0.0000   0.3043
  10.250   1.5303   0.01987   0.01398  -0.1044  0.1978  1.0001  -3.4093   0.0000   0.0000   0.0000   0.3021
  10.500   1.5371   0.02122   0.01524  -0.1023  0.1790  1.0001  -3.5160   0.0000   0.0000   0.0000   0.3000
  10.750   1.5433   0.02265   0.01659  -0.1002  0.1612  1.0001  -3.6218   0.0000   0.0000   0.0000   0.2979
  11.000   1.5492   0.02413   0.01799  -0.0981  0.1447  1.0001  -3.7270   0.0000   0.0000   0.0000   0.2959
  11.750   1.5640   0.02895   0.02261  -0.0922  0.1015  1.0001  -4.0523   0.0000   0.0000   0.0000   0.2901
  12.000   1.5689   0.03061   0.02423  -0.0904  0.0900  1.0001  -4.1646   0.0000   0.0000   0.0000   0.2882
  12.250   1.5735   0.03232   0.02591  -0.0887  0.0805  1.0001  -4.2764   0.0000   0.0000   0.0000   0.2864
  12.500   1.5783   0.03405   0.02762  -0.0870  0.0722  1.0001  -4.3896   0.0000   0.0000   0.0000   0.2847
  12.750   1.5826   0.03587   0.02943  -0.0854  0.0651  1.0001  -4.5017   0.0000   0.0000   0.0000   0.2830
  13.000   1.5875   0.03769   0.03125  -0.0839  0.0591  1.0001  -4.6167   0.0000   0.0000   0.0000   0.2814
  13.250   1.5922   0.03956   0.03313  -0.0825  0.0539  1.0001  -4.7384   0.0000   0.0000   0.0000   0.2799
  13.750   1.6020   0.04340   0.03701  -0.0799  0.0459  1.0001  -4.9882   0.0000   0.0000   0.0000   0.2769
  14.000   1.6068   0.04540   0.03905  -0.0788  0.0428  1.0001  -5.1136   0.0000   0.0000   0.0000   0.2755
  14.250   1.6096   0.04763   0.04130  -0.0776  0.0401  1.0001  -5.2311   0.0000   0.0000   0.0000   0.2741
  14.500   1.6146   0.04967   0.04339  -0.0766  0.0376  1.0001  -5.3587   0.0000   0.0000   0.0000   0.2728
  14.750   1.6168   0.05203   0.04579  -0.0755  0.0356  1.0001  -5.4746   0.0000   0.0000   0.0000   0.2715
  15.000   1.6209   0.05425   0.04807  -0.0747  0.0335  1.0001  -5.5998   0.0000   0.0000   0.0000   0.2703
  15.250   1.6212   0.05692   0.05078  -0.0737  0.0319  1.0001  -5.7154   0.0000   0.0000   0.0000   0.2692
  15.500   1.6255   0.05920   0.05313  -0.0730  0.0303  1.0001  -5.8517   0.0000   0.0000   0.0000   0.2680
  15.750   1.6261   0.06191   0.05589  -0.0723  0.0290  1.0001  -5.9698   0.0000   0.0000   0.0000   0.2670
  16.000   1.6253   0.06482   0.05887  -0.0716  0.0278  1.0001  -6.0796   0.0000   0.0000   0.0000   0.2660
  16.250   1.6276   0.06742   0.06155  -0.0711  0.0267  1.0001  -6.2072   0.0000   0.0000   0.0000   0.2650
  16.500   1.6274   0.07038   0.06457  -0.0706  0.0257  1.0001  -6.3219   0.0000   0.0000   0.0000   0.2642
  16.750   1.6226   0.07393   0.06818  -0.0702  0.0248  1.0001  -6.4112   0.0000   0.0000   0.0000   0.2634
  17.000   1.6231   0.07689   0.07123  -0.0699  0.0240  1.0001  -6.5286   0.0000   0.0000   0.0000   0.2626
  17.250   1.6231   0.07993   0.07435  -0.0697  0.0232  1.0001  -6.6444   0.0000   0.0000   0.0000   0.2619
  17.500   1.6210   0.08325   0.07775  -0.0696  0.0225  1.0001  -6.7490   0.0000   0.0000   0.0000   0.2613
  17.750   1.6157   0.08706   0.08163  -0.0696  0.0218  1.0001  -6.8338   0.0000   0.0000   0.0000   0.2608
  18.000   1.6076   0.09133   0.08597  -0.0698  0.0213  1.0001  -6.8999   0.0000   0.0000   0.0000   0.2605
  18.250   1.6064   0.09469   0.08945  -0.0700  0.0208  1.0001  -7.0145   0.0000   0.0000   0.0000   0.2601
  18.500   1.6035   0.09834   0.09319  -0.0704  0.0202  1.0001  -7.1176   0.0000   0.0000   0.0000   0.2597
  18.750   1.5995   0.10215   0.09708  -0.0709  0.0197  1.0001  -7.2144   0.0000   0.0000   0.0000   0.2595
  19.000   1.5944   0.10613   0.10115  -0.0715  0.0193  1.0001  -7.3025   0.0000   0.0000   0.0000   0.2594
  19.250   1.5873   0.11044   0.10554  -0.0723  0.0189  1.0001  -7.3765   0.0000   0.0000   0.0000   0.2594
  19.500   1.5771   0.11529   0.11047  -0.0733  0.0185  1.0001  -7.4249   0.0000   0.0000   0.0000   0.2598
  19.750   1.5693   0.11985   0.11512  -0.0744  0.0181  1.0001  -7.4863   0.0000   0.0000   0.0000   0.2600
  20.000   1.5664   0.12370   0.11908  -0.0755  0.0177  1.0001  -7.5815   0.0000   0.0000   0.0000   0.2601


