xflr5 v6.61

 Calculated polar for: QX0026 thickness=13.65

 1 1 Reynolds number fixed          Mach number fixed         

 xtrf =   1.000 (top)        1.000 (bottom)
 Mach =   0.000     Re =     0.300 e 6     Ncrit =   9.000

  alpha     CL        CD       CDp       Cm    Top Xtr Bot Xtr   Cpmin    Chinge    XCp    
 ------- -------- --------- --------- -------- ------- ------- -------- --------- ---------
  -9.750  -0.1746   0.09192   0.08857  -0.0864  0.8758  0.0460  -1.9697   0.0000   0.0000   0.0000  -0.2825
  -9.500  -0.1591   0.09058   0.08720  -0.0850  0.8715  0.0467  -1.8180   0.0000   0.0000   0.0000  -0.3236
  -9.250  -0.1490   0.08836   0.08495  -0.0854  0.8668  0.0478  -1.7512   0.0000   0.0000   0.0000  -0.3639
  -9.000  -0.1446   0.08503   0.08161  -0.0875  0.8621  0.0496  -1.7673   0.0000   0.0000   0.0000  -0.3960
  -8.000  -0.1308   0.07017   0.06674  -0.0982  0.8437  0.0545  -1.9009   0.0000   0.0000   0.0000  -0.5400
  -7.500  -0.1632   0.04044   0.03634  -0.1318  0.8325  0.0470  -2.9359   0.0000   0.0000   0.0000  -0.5891
  -7.250  -0.1444   0.03900   0.03475  -0.1330  0.8294  0.0523  -2.8069   0.0000   0.0000   0.0000  -0.7049
  -6.750  -0.1265   0.02205   0.01539  -0.1355  0.8218  0.0402  -3.4290   0.0000   0.0000   0.0000  -0.8619
  -6.500  -0.1017   0.02063   0.01371  -0.1355  0.8183  0.0412  -3.3192   0.0000   0.0000   0.0000  -1.1302
  -6.250  -0.0755   0.01996   0.01303  -0.1355  0.8148  0.0427  -3.1550   0.0000   0.0000   0.0000  -1.6077
  -6.000  -0.0485   0.01923   0.01210  -0.1355  0.8122  0.0447  -3.0154   0.0000   0.0000   0.0000  -2.6378
  -5.750  -0.0222   0.01833   0.01102  -0.1354  0.8087  0.0463  -2.8908   0.0000   0.0000   0.0000  -6.0327
  -5.500   0.0045   0.01768   0.01036  -0.1354  0.8053  0.0480  -2.7376   0.0000   0.0000   0.0000  31.4470
  -5.250   0.0322   0.01712   0.00966  -0.1354  0.8028  0.0503  -2.5935   0.0000   0.0000   0.0000   4.5778
  -5.000   0.0587   0.01654   0.00909  -0.1354  0.7993  0.0529  -2.4454   0.0000   0.0000   0.0000   2.6192
  -4.750   0.0860   0.01614   0.00861  -0.1354  0.7959  0.0560  -2.3080   0.0000   0.0000   0.0000   1.8643
  -4.500   0.1135   0.01557   0.00804  -0.1354  0.7934  0.0589  -2.1776   0.0000   0.0000   0.0000   1.4719
  -4.250   0.1408   0.01527   0.00768  -0.1354  0.7900  0.0629  -2.0479   0.0000   0.0000   0.0000   1.2333
  -4.000   0.1678   0.01487   0.00733  -0.1354  0.7865  0.0677  -1.9140   0.0000   0.0000   0.0000   1.0743
  -3.750   0.1957   0.01447   0.00693  -0.1354  0.7839  0.0730  -1.7823   0.0000   0.0000   0.0000   0.9560
  -3.500   0.2230   0.01418   0.00666  -0.1355  0.7806  0.0802  -1.6552   0.0000   0.0000   0.0000   0.8687
  -3.250   0.2504   0.01391   0.00640  -0.1355  0.7770  0.0897  -1.5403   0.0000   0.0000   0.0000   0.8004
  -3.000   0.2787   0.01357   0.00611  -0.1356  0.7742  0.1035  -1.4228   0.0000   0.0000   0.0000   0.7444
  -2.750   0.3062   0.01326   0.00591  -0.1358  0.7710  0.1268  -1.3085   0.0000   0.0000   0.0000   0.6997
  -2.500   0.3333   0.01294   0.00579  -0.1359  0.7672  0.1710  -1.1951   0.0000   0.0000   0.0000   0.6628
  -2.250   0.3617   0.01264   0.00567  -0.1361  0.7644  0.2295  -1.0868   0.0000   0.0000   0.0000   0.6306
  -2.000   0.3893   0.01246   0.00564  -0.1363  0.7611  0.2826  -0.9813   0.0000   0.0000   0.0000   0.6033
  -1.750   0.4166   0.01230   0.00564  -0.1363  0.7571  0.3351  -0.8783   0.0000   0.0000   0.0000   0.5799
  -1.500   0.4450   0.01207   0.00557  -0.1365  0.7543  0.3950  -0.7784   0.0000   0.0000   0.0000   0.5587
  -1.250   0.4720   0.01188   0.00560  -0.1365  0.7508  0.4662  -0.7928   0.0000   0.0000   0.0000   0.5405
  -1.000   0.4984   0.01166   0.00565  -0.1363  0.7468  0.5530  -0.8102   0.0000   0.0000   0.0000   0.5243
  -0.750   0.5250   0.01138   0.00566  -0.1359  0.7440  0.6538  -0.8286   0.0000   0.0000   0.0000   0.5091
  -0.500   0.5489   0.01121   0.00577  -0.1349  0.7401  0.7462  -0.8455   0.0000   0.0000   0.0000   0.4956
  -0.250   0.5704   0.01100   0.00581  -0.1331  0.7362  0.8360  -0.8619   0.0000   0.0000   0.0000   0.4827
   0.000   0.6024   0.01075   0.00566  -0.1331  0.7334  0.9512  -0.8847   0.0000   0.0000   0.0000   0.4700
   0.250   0.6397   0.01079   0.00566  -0.1353  0.7291  1.0001  -0.9099   0.0000   0.0000   0.0000   0.4600
   0.500   0.6680   0.01084   0.00562  -0.1354  0.7252  1.0001  -0.9312   0.0000   0.0000   0.0000   0.4509
   0.750   0.6978   0.01085   0.00551  -0.1358  0.7224  1.0001  -0.9542   0.0000   0.0000   0.0000   0.4424
   1.000   0.7236   0.01098   0.00563  -0.1356  0.7171  1.0001  -0.9749   0.0000   0.0000   0.0000   0.4348
   1.250   0.7528   0.01099   0.00556  -0.1358  0.7135  1.0001  -0.9986   0.0000   0.0000   0.0000   0.4275
   1.500   0.7800   0.01108   0.00561  -0.1357  0.7090  1.0001  -1.0216   0.0000   0.0000   0.0000   0.4208
   1.750   0.8081   0.01112   0.00561  -0.1358  0.7046  1.0001  -1.0459   0.0000   0.0000   0.0000   0.4145
   2.000   0.8373   0.01115   0.00557  -0.1360  0.7010  1.0001  -1.0717   0.0000   0.0000   0.0000   0.4086
   2.250   0.8637   0.01124   0.00566  -0.1358  0.6954  1.0001  -1.0963   0.0000   0.0000   0.0000   0.4030
   2.500   0.8933   0.01123   0.00558  -0.1361  0.6917  1.0001  -1.1242   0.0000   0.0000   0.0000   0.3978
   2.750   0.9192   0.01133   0.00571  -0.1358  0.6858  1.0001  -1.1502   0.0000   0.0000   0.0000   0.3929
   3.000   0.9484   0.01133   0.00564  -0.1360  0.6816  1.0001  -1.1799   0.0000   0.0000   0.0000   0.3882
   3.250   0.9745   0.01142   0.00575  -0.1358  0.6754  1.0001  -1.2081   0.0000   0.0000   0.0000   0.3838
   3.500   1.0036   0.01142   0.00570  -0.1360  0.6708  1.0001  -1.2403   0.0000   0.0000   0.0000   0.3796
   3.750   1.0292   0.01150   0.00582  -0.1356  0.6641  1.0001  -1.2708   0.0000   0.0000   0.0000   0.3756
   4.000   1.0578   0.01152   0.00579  -0.1357  0.6589  1.0001  -1.3054   0.0000   0.0000   0.0000   0.3718
   4.250   1.0836   0.01158   0.00588  -0.1354  0.6519  1.0001  -1.3394   0.0000   0.0000   0.0000   0.3681
   4.500   1.1101   0.01164   0.00595  -0.1351  0.6450  1.0001  -1.3759   0.0000   0.0000   0.0000   0.3646
   4.750   1.1381   0.01166   0.00593  -0.1351  0.6387  1.0001  -1.4159   0.0000   0.0000   0.0000   0.3612
   5.000   1.1630   0.01174   0.00606  -0.1346  0.6304  1.0001  -1.4555   0.0000   0.0000   0.0000   0.3579
   5.250   1.1884   0.01182   0.00616  -0.1342  0.6221  1.0001  -1.4988   0.0000   0.0000   0.0000   0.3547
   5.500   1.2141   0.01190   0.00624  -0.1338  0.6136  1.0001  -1.5466   0.0000   0.0000   0.0000   0.3517
   5.750   1.2395   0.01199   0.00633  -0.1334  0.6046  1.0001  -1.6017   0.0000   0.0000   0.0000   0.3487
   6.000   1.2644   0.01210   0.00644  -0.1328  0.5948  1.0001  -1.6718   0.0000   0.0000   0.0000   0.3458
   6.250   1.2884   0.01224   0.00659  -0.1322  0.5840  1.0001  -1.7502   0.0000   0.0000   0.0000   0.3430
   6.500   1.3115   0.01240   0.00677  -0.1313  0.5722  1.0001  -1.8327   0.0000   0.0000   0.0000   0.3402
   6.750   1.3339   0.01259   0.00698  -0.1304  0.5592  1.0001  -1.9192   0.0000   0.0000   0.0000   0.3374
   7.000   1.3557   0.01281   0.00719  -0.1294  0.5454  1.0001  -2.0111   0.0000   0.0000   0.0000   0.3347
   7.250   1.3765   0.01307   0.00742  -0.1282  0.5307  1.0001  -2.1092   0.0000   0.0000   0.0000   0.3320
   7.500   1.3954   0.01339   0.00773  -0.1267  0.5138  1.0001  -2.2107   0.0000   0.0000   0.0000   0.3293
   7.750   1.4131   0.01378   0.00805  -0.1250  0.4965  1.0001  -2.3140   0.0000   0.0000   0.0000   0.3266
   8.000   1.4292   0.01422   0.00845  -0.1230  0.4784  1.0001  -2.4198   0.0000   0.0000   0.0000   0.3238
   8.250   1.4438   0.01471   0.00891  -0.1209  0.4606  1.0001  -2.5249   0.0000   0.0000   0.0000   0.3211
   8.500   1.4550   0.01526   0.00940  -0.1181  0.4436  1.0001  -2.6228   0.0000   0.0000   0.0000   0.3181
   8.750   1.4658   0.01587   0.00998  -0.1154  0.4260  1.0001  -2.7245   0.0000   0.0000   0.0000   0.3153
   9.000   1.4755   0.01659   0.01066  -0.1127  0.4088  1.0001  -2.8267   0.0000   0.0000   0.0000   0.3125
   9.250   1.4843   0.01740   0.01143  -0.1101  0.3910  1.0001  -2.9275   0.0000   0.0000   0.0000   0.3098
   9.500   1.4926   0.01831   0.01231  -0.1075  0.3728  1.0001  -3.0275   0.0000   0.0000   0.0000   0.3073
   9.750   1.4996   0.01935   0.01331  -0.1049  0.3545  1.0001  -3.1250   0.0000   0.0000   0.0000   0.3048
  10.000   1.5056   0.02053   0.01443  -0.1024  0.3359  1.0001  -3.2238   0.0000   0.0000   0.0000   0.3024
  10.250   1.5110   0.02183   0.01568  -0.1000  0.3167  1.0001  -3.3238   0.0000   0.0000   0.0000   0.3001
  10.500   1.5158   0.02324   0.01704  -0.0976  0.2971  1.0001  -3.4225   0.0000   0.0000   0.0000   0.2979
  10.750   1.5196   0.02478   0.01852  -0.0953  0.2774  1.0001  -3.5188   0.0000   0.0000   0.0000   0.2957
  11.000   1.5225   0.02644   0.02011  -0.0931  0.2577  1.0001  -3.6126   0.0000   0.0000   0.0000   0.2936
  11.500   1.5260   0.03009   0.02363  -0.0887  0.2185  1.0001  -3.7935   0.0000   0.0000   0.0000   0.2897
  11.750   1.5270   0.03206   0.02554  -0.0866  0.1992  1.0001  -3.8862   0.0000   0.0000   0.0000   0.2878
  12.000   1.5269   0.03414   0.02755  -0.0846  0.1804  1.0001  -3.9768   0.0000   0.0000   0.0000   0.2859
  12.250   1.5261   0.03635   0.02969  -0.0826  0.1623  1.0001  -4.0648   0.0000   0.0000   0.0000   0.2841
  12.500   1.5248   0.03868   0.03195  -0.0807  0.1452  1.0001  -4.1509   0.0000   0.0000   0.0000   0.2824
  12.750   1.5231   0.04111   0.03432  -0.0788  0.1294  1.0001  -4.2349   0.0000   0.0000   0.0000   0.2808
  13.000   1.5213   0.04364   0.03679  -0.0772  0.1152  1.0001  -4.3184   0.0000   0.0000   0.0000   0.2792
  13.250   1.5199   0.04622   0.03934  -0.0757  0.1028  1.0001  -4.4023   0.0000   0.0000   0.0000   0.2778
  13.500   1.5181   0.04889   0.04198  -0.0742  0.0927  1.0001  -4.4845   0.0000   0.0000   0.0000   0.2763
  13.750   1.5165   0.05161   0.04469  -0.0729  0.0842  1.0001  -4.5696   0.0000   0.0000   0.0000   0.2750
  14.000   1.5147   0.05444   0.04752  -0.0718  0.0774  1.0001  -4.6569   0.0000   0.0000   0.0000   0.2738
  14.250   1.5131   0.05731   0.05042  -0.0707  0.0716  1.0001  -4.7450   0.0000   0.0000   0.0000   0.2726
  14.500   1.5117   0.06022   0.05336  -0.0698  0.0667  1.0001  -4.8331   0.0000   0.0000   0.0000   0.2715
  14.750   1.5098   0.06324   0.05642  -0.0690  0.0625  1.0001  -4.9183   0.0000   0.0000   0.0000   0.2704
  15.000   1.5058   0.06655   0.05975  -0.0682  0.0593  1.0001  -4.9949   0.0000   0.0000   0.0000   0.2695
  15.250   1.5058   0.06947   0.06275  -0.0677  0.0558  1.0001  -5.0875   0.0000   0.0000   0.0000   0.2686
  15.500   1.5028   0.07280   0.06613  -0.0671  0.0532  1.0001  -5.1657   0.0000   0.0000   0.0000   0.2677
  15.750   1.5014   0.07598   0.06937  -0.0668  0.0506  1.0001  -5.2522   0.0000   0.0000   0.0000   0.2670
  16.000   1.4983   0.07936   0.07280  -0.0664  0.0484  1.0001  -5.3314   0.0000   0.0000   0.0000   0.2663
  16.250   1.4973   0.08257   0.07609  -0.0662  0.0462  1.0001  -5.4257   0.0000   0.0000   0.0000   0.2656
  16.500   1.4931   0.08614   0.07968  -0.0660  0.0445  1.0001  -5.5047   0.0000   0.0000   0.0000   0.2650
  16.750   1.4932   0.08930   0.08296  -0.0660  0.0426  1.0001  -5.6012   0.0000   0.0000   0.0000   0.2644
  17.000   1.4915   0.09266   0.08637  -0.0660  0.0411  1.0001  -5.6918   0.0000   0.0000   0.0000   0.2639
  17.250   1.4895   0.09600   0.08974  -0.0660  0.0397  1.0001  -5.7783   0.0000   0.0000   0.0000   0.2634
  17.500   1.4894   0.09921   0.09308  -0.0662  0.0382  1.0001  -5.8724   0.0000   0.0000   0.0000   0.2629
  17.750   1.4887   0.10245   0.09636  -0.0664  0.0370  1.0001  -5.9681   0.0000   0.0000   0.0000   0.2625
  18.000   1.4883   0.10550   0.09941  -0.0665  0.0358  1.0001  -6.0643   0.0000   0.0000   0.0000   0.2619
  18.250   1.4882   0.10884   0.10290  -0.0670  0.0346  1.0001  -6.1547   0.0000   0.0000   0.0000   0.2616
  18.500   1.4886   0.11202   0.10616  -0.0675  0.0335  1.0001  -6.2525   0.0000   0.0000   0.0000   0.2613
  18.750   1.4903   0.11483   0.10897  -0.0678  0.0325  1.0001  -6.3630   0.0000   0.0000   0.0000   0.2609
  19.000   1.4924   0.11753   0.11172  -0.0679  0.0316  1.0001  -6.4771   0.0000   0.0000   0.0000   0.2603
  19.250   1.4922   0.12091   0.11525  -0.0687  0.0307  1.0001  -6.5721   0.0000   0.0000   0.0000   0.2602
  19.500   1.4928   0.12408   0.11852  -0.0695  0.0298  1.0001  -6.6769   0.0000   0.0000   0.0000   0.2600
  19.750   1.4951   0.12685   0.12131  -0.0701  0.0290  1.0001  -6.7983   0.0000   0.0000   0.0000   0.2597
  20.000   1.5015   0.12860   0.12302  -0.0700  0.0281  1.0001  -6.9484   0.0000   0.0000   0.0000   0.2588


