xflr5 v6.61

 Calculated polar for: QX0026 thickness=13.65

 1 1 Reynolds number fixed          Mach number fixed         

 xtrf =   1.000 (top)        1.000 (bottom)
 Mach =   0.000     Re =     0.860 e 6     Ncrit =   9.000

  alpha     CL        CD       CDp       Cm    Top Xtr Bot Xtr   Cpmin    Chinge    XCp    
 ------- -------- --------- --------- -------- ------- ------- -------- --------- ---------
 -10.000  -0.4892   0.01959   0.01471  -0.1290  0.7984  0.0185  -6.7734   0.0000   0.0000   0.0000  -0.0322
  -9.750  -0.4646   0.01877   0.01375  -0.1291  0.7951  0.0190  -6.5524   0.0000   0.0000   0.0000  -0.0466
  -9.500  -0.4393   0.01810   0.01292  -0.1292  0.7922  0.0194  -6.3253   0.0000   0.0000   0.0000  -0.0630
  -9.250  -0.4129   0.01762   0.01232  -0.1294  0.7887  0.0197  -6.0871   0.0000   0.0000   0.0000  -0.0826
  -9.000  -0.3898   0.01628   0.01085  -0.1294  0.7856  0.0204  -5.8999   0.0000   0.0000   0.0000  -0.1016
  -8.750  -0.3636   0.01575   0.01026  -0.1295  0.7829  0.0208  -5.6624   0.0000   0.0000   0.0000  -0.1263
  -8.500  -0.3368   0.01528   0.00974  -0.1297  0.7798  0.0214  -5.4260   0.0000   0.0000   0.0000  -0.1558
  -8.250  -0.3098   0.01482   0.00919  -0.1298  0.7767  0.0219  -5.1970   0.0000   0.0000   0.0000  -0.1905
  -8.000  -0.2828   0.01436   0.00864  -0.1299  0.7740  0.0226  -4.9739   0.0000   0.0000   0.0000  -0.2319
  -7.750  -0.2553   0.01397   0.00815  -0.1300  0.7713  0.0231  -4.7516   0.0000   0.0000   0.0000  -0.2831
  -7.500  -0.2289   0.01328   0.00738  -0.1300  0.7682  0.0238  -4.5476   0.0000   0.0000   0.0000  -0.3438
  -7.250  -0.2016   0.01284   0.00691  -0.1302  0.7654  0.0246  -4.3269   0.0000   0.0000   0.0000  -0.4234
  -7.000  -0.1737   0.01258   0.00660  -0.1303  0.7630  0.0254  -4.1194   0.0000   0.0000   0.0000  -0.5311
  -6.750  -0.1456   0.01229   0.00627  -0.1305  0.7601  0.0264  -3.9202   0.0000   0.0000   0.0000  -0.6813
  -6.500  -0.1173   0.01204   0.00595  -0.1306  0.7572  0.0272  -3.7256   0.0000   0.0000   0.0000  -0.9050
  -6.250  -0.0902   0.01149   0.00537  -0.1308  0.7546  0.0283  -3.5451   0.0000   0.0000   0.0000  -1.2514
  -6.000  -0.0619   0.01125   0.00509  -0.1309  0.7522  0.0295  -3.3519   0.0000   0.0000   0.0000  -1.9356
  -5.750  -0.0335   0.01101   0.00482  -0.1311  0.7492  0.0307  -3.1648   0.0000   0.0000   0.0000  -3.7873
  -5.500  -0.0054   0.01069   0.00445  -0.1313  0.7464  0.0321  -2.9850   0.0000   0.0000   0.0000  -25.0062
  -5.250   0.0231   0.01047   0.00422  -0.1315  0.7439  0.0338  -2.8001   0.0000   0.0000   0.0000   6.1113
  -5.000   0.0517   0.01030   0.00401  -0.1316  0.7413  0.0355  -2.6272   0.0000   0.0000   0.0000   2.8625
  -4.750   0.0801   0.01000   0.00371  -0.1318  0.7383  0.0375  -2.4703   0.0000   0.0000   0.0000   1.9383
  -4.500   0.1088   0.00983   0.00352  -0.1320  0.7355  0.0397  -2.3110   0.0000   0.0000   0.0000   1.4926
  -4.250   0.1374   0.00963   0.00328  -0.1322  0.7330  0.0425  -2.1566   0.0000   0.0000   0.0000   1.2338
  -4.000   0.1662   0.00949   0.00314  -0.1324  0.7301  0.0455  -2.0024   0.0000   0.0000   0.0000   1.0634
  -3.750   0.1948   0.00928   0.00294  -0.1327  0.7270  0.0494  -1.8534   0.0000   0.0000   0.0000   0.9439
  -3.500   0.2236   0.00911   0.00276  -0.1329  0.7242  0.0540  -1.7119   0.0000   0.0000   0.0000   0.8546
  -3.250   0.2524   0.00897   0.00262  -0.1331  0.7214  0.0600  -1.5796   0.0000   0.0000   0.0000   0.7857
  -3.000   0.2811   0.00881   0.00249  -0.1333  0.7182  0.0681  -1.4502   0.0000   0.0000   0.0000   0.7310
  -2.750   0.3099   0.00864   0.00237  -0.1335  0.7151  0.0802  -1.3235   0.0000   0.0000   0.0000   0.6864
  -2.500   0.3386   0.00848   0.00225  -0.1338  0.7124  0.1004  -1.1991   0.0000   0.0000   0.0000   0.6495
  -2.000   0.3959   0.00811   0.00211  -0.1343  0.7059  0.1652  -0.9766   0.0000   0.0000   0.0000   0.5920
  -1.750   0.4246   0.00796   0.00205  -0.1346  0.7030  0.2034  -0.8693   0.0000   0.0000   0.0000   0.5690
  -1.500   0.4533   0.00782   0.00202  -0.1349  0.6998  0.2405  -0.7896   0.0000   0.0000   0.0000   0.5489
  -1.250   0.4820   0.00769   0.00200  -0.1351  0.6963  0.2778  -0.8076   0.0000   0.0000   0.0000   0.5312
  -1.000   0.5107   0.00757   0.00197  -0.1354  0.6931  0.3179  -0.8261   0.0000   0.0000   0.0000   0.5154
  -0.750   0.5393   0.00745   0.00196  -0.1357  0.6900  0.3646  -0.8449   0.0000   0.0000   0.0000   0.5013
  -0.500   0.5679   0.00729   0.00197  -0.1359  0.6862  0.4190  -0.8642   0.0000   0.0000   0.0000   0.4887
  -0.250   0.5963   0.00713   0.00197  -0.1361  0.6828  0.4857  -0.8841   0.0000   0.0000   0.0000   0.4773
   0.000   0.6245   0.00696   0.00201  -0.1363  0.6794  0.5657  -0.9043   0.0000   0.0000   0.0000   0.4669
   0.250   0.6522   0.00675   0.00207  -0.1364  0.6754  0.6563  -0.9248   0.0000   0.0000   0.0000   0.4573
   0.500   0.6799   0.00663   0.00210  -0.1363  0.6718  0.7253  -0.9458   0.0000   0.0000   0.0000   0.4484
   0.750   0.7069   0.00651   0.00215  -0.1361  0.6680  0.7882  -0.9670   0.0000   0.0000   0.0000   0.4400
   1.000   0.7313   0.00633   0.00221  -0.1352  0.6638  0.8685  -0.9874   0.0000   0.0000   0.0000   0.4320
   1.250   0.7606   0.00619   0.00219  -0.1352  0.6600  0.9767  -1.0113   0.0000   0.0000   0.0000   0.4245
   1.500   0.7932   0.00621   0.00221  -0.1363  0.6554  1.0001  -1.0374   0.0000   0.0000   0.0000   0.4183
   1.750   0.8214   0.00627   0.00222  -0.1364  0.6509  1.0001  -1.0618   0.0000   0.0000   0.0000   0.4122
   2.000   0.8497   0.00632   0.00226  -0.1365  0.6462  1.0001  -1.0869   0.0000   0.0000   0.0000   0.4065
   2.250   0.8779   0.00638   0.00229  -0.1367  0.6411  1.0001  -1.1129   0.0000   0.0000   0.0000   0.4012
   2.500   0.9060   0.00645   0.00233  -0.1368  0.6360  1.0001  -1.1396   0.0000   0.0000   0.0000   0.3962
   2.750   0.9340   0.00652   0.00238  -0.1369  0.6303  1.0001  -1.1673   0.0000   0.0000   0.0000   0.3914
   3.000   0.9619   0.00659   0.00244  -0.1369  0.6246  1.0001  -1.1959   0.0000   0.0000   0.0000   0.3870
   3.250   0.9896   0.00667   0.00249  -0.1370  0.6184  1.0001  -1.2256   0.0000   0.0000   0.0000   0.3827
   3.500   1.0174   0.00675   0.00257  -0.1370  0.6116  1.0001  -1.2567   0.0000   0.0000   0.0000   0.3787
   3.750   1.0447   0.00685   0.00264  -0.1370  0.6048  1.0001  -1.2888   0.0000   0.0000   0.0000   0.3748
   4.000   1.0720   0.00695   0.00272  -0.1370  0.5970  1.0001  -1.3226   0.0000   0.0000   0.0000   0.3711
   4.250   1.0992   0.00706   0.00282  -0.1370  0.5886  1.0001  -1.3580   0.0000   0.0000   0.0000   0.3676
   4.500   1.1261   0.00718   0.00292  -0.1369  0.5797  1.0001  -1.3953   0.0000   0.0000   0.0000   0.3642
   4.750   1.1526   0.00732   0.00303  -0.1367  0.5699  1.0001  -1.4345   0.0000   0.0000   0.0000   0.3610
   5.000   1.1788   0.00747   0.00316  -0.1365  0.5590  1.0001  -1.4760   0.0000   0.0000   0.0000   0.3578
   5.250   1.2045   0.00764   0.00330  -0.1362  0.5469  1.0001  -1.5204   0.0000   0.0000   0.0000   0.3548
   5.500   1.2296   0.00784   0.00346  -0.1359  0.5334  1.0001  -1.5691   0.0000   0.0000   0.0000   0.3518
   5.750   1.2540   0.00808   0.00364  -0.1354  0.5188  1.0001  -1.6266   0.0000   0.0000   0.0000   0.3489
   6.000   1.2780   0.00834   0.00385  -0.1348  0.5024  1.0001  -1.7006   0.0000   0.0000   0.0000   0.3461
   6.250   1.3008   0.00865   0.00409  -0.1340  0.4851  1.0001  -1.7796   0.0000   0.0000   0.0000   0.3433
   6.500   1.3228   0.00900   0.00436  -0.1331  0.4661  1.0001  -1.8623   0.0000   0.0000   0.0000   0.3406
   6.750   1.3442   0.00937   0.00465  -0.1321  0.4462  1.0001  -1.9490   0.0000   0.0000   0.0000   0.3379
   7.000   1.3648   0.00977   0.00497  -0.1310  0.4265  1.0001  -2.0406   0.0000   0.0000   0.0000   0.3352
   7.250   1.3848   0.01018   0.00531  -0.1298  0.4079  1.0001  -2.1391   0.0000   0.0000   0.0000   0.3326
   7.750   1.4224   0.01107   0.00605  -0.1270  0.3708  1.0001  -2.3525   0.0000   0.0000   0.0000   0.3274
   8.000   1.4382   0.01155   0.00646  -0.1251  0.3525  1.0001  -2.4595   0.0000   0.0000   0.0000   0.3247
   8.250   1.4522   0.01209   0.00693  -0.1229  0.3338  1.0001  -2.5637   0.0000   0.0000   0.0000   0.3219
   8.500   1.4654   0.01271   0.00747  -0.1206  0.3143  1.0001  -2.6699   0.0000   0.0000   0.0000   0.3192
   8.750   1.4777   0.01341   0.00808  -0.1184  0.2942  1.0001  -2.7788   0.0000   0.0000   0.0000   0.3166
   9.000   1.4891   0.01420   0.00877  -0.1161  0.2739  1.0001  -2.8866   0.0000   0.0000   0.0000   0.3140
   9.250   1.4996   0.01508   0.00956  -0.1138  0.2534  1.0001  -2.9931   0.0000   0.0000   0.0000   0.3116
   9.500   1.5095   0.01604   0.01044  -0.1116  0.2334  1.0001  -3.0988   0.0000   0.0000   0.0000   0.3092
   9.750   1.5186   0.01711   0.01142  -0.1094  0.2137  1.0001  -3.2075   0.0000   0.0000   0.0000   0.3069
  10.000   1.5270   0.01827   0.01248  -0.1073  0.1945  1.0001  -3.3175   0.0000   0.0000   0.0000   0.3046
  10.250   1.5346   0.01952   0.01365  -0.1051  0.1760  1.0001  -3.4261   0.0000   0.0000   0.0000   0.3024
  10.500   1.5423   0.02081   0.01486  -0.1031  0.1585  1.0001  -3.5359   0.0000   0.0000   0.0000   0.3003
  10.750   1.5495   0.02217   0.01614  -0.1011  0.1421  1.0001  -3.6452   0.0000   0.0000   0.0000   0.2982
  11.000   1.5559   0.02360   0.01750  -0.0991  0.1266  1.0001  -3.7526   0.0000   0.0000   0.0000   0.2962
  11.250   1.5619   0.02510   0.01892  -0.0971  0.1121  1.0001  -3.8617   0.0000   0.0000   0.0000   0.2942
  11.500   1.5676   0.02664   0.02041  -0.0952  0.0993  1.0001  -3.9757   0.0000   0.0000   0.0000   0.2923
  11.750   1.5731   0.02821   0.02193  -0.0933  0.0883  1.0001  -4.0900   0.0000   0.0000   0.0000   0.2904
  12.000   1.5795   0.02975   0.02345  -0.0916  0.0788  1.0001  -4.2082   0.0000   0.0000   0.0000   0.2886
  12.250   1.5848   0.03139   0.02506  -0.0899  0.0707  1.0001  -4.3237   0.0000   0.0000   0.0000   0.2868
  12.500   1.5907   0.03301   0.02667  -0.0883  0.0636  1.0001  -4.4421   0.0000   0.0000   0.0000   0.2851
  12.750   1.5966   0.03468   0.02833  -0.0867  0.0576  1.0001  -4.5614   0.0000   0.0000   0.0000   0.2834
  13.000   1.6025   0.03639   0.03005  -0.0853  0.0525  1.0001  -4.6837   0.0000   0.0000   0.0000   0.2818
  13.250   1.6083   0.03815   0.03182  -0.0839  0.0482  1.0001  -4.8125   0.0000   0.0000   0.0000   0.2802
  13.500   1.6132   0.04000   0.03369  -0.0825  0.0446  1.0001  -4.9386   0.0000   0.0000   0.0000   0.2787
  13.750   1.6193   0.04180   0.03552  -0.0813  0.0414  1.0001  -5.0709   0.0000   0.0000   0.0000   0.2772
  14.000   1.6250   0.04368   0.03744  -0.0801  0.0387  1.0001  -5.2016   0.0000   0.0000   0.0000   0.2758
  14.250   1.6286   0.04579   0.03956  -0.0789  0.0362  1.0001  -5.3249   0.0000   0.0000   0.0000   0.2744
  14.500   1.6348   0.04770   0.04153  -0.0779  0.0340  1.0001  -5.4600   0.0000   0.0000   0.0000   0.2731
  15.000   1.6425   0.05203   0.04595  -0.0759  0.0304  1.0001  -5.7169   0.0000   0.0000   0.0000   0.2705
  15.250   1.6449   0.05443   0.04838  -0.0750  0.0289  1.0001  -5.8455   0.0000   0.0000   0.0000   0.2693
  15.500   1.6477   0.05682   0.05084  -0.0741  0.0276  1.0001  -5.9758   0.0000   0.0000   0.0000   0.2681
  15.750   1.6512   0.05919   0.05327  -0.0734  0.0263  1.0001  -6.1109   0.0000   0.0000   0.0000   0.2670
  16.000   1.6516   0.06191   0.05604  -0.0727  0.0252  1.0001  -6.2311   0.0000   0.0000   0.0000   0.2660
  16.250   1.6518   0.06468   0.05888  -0.0720  0.0243  1.0001  -6.3496   0.0000   0.0000   0.0000   0.2650
  16.500   1.6546   0.06722   0.06150  -0.0715  0.0233  1.0001  -6.4830   0.0000   0.0000   0.0000   0.2640
  16.750   1.6549   0.07008   0.06442  -0.0710  0.0224  1.0001  -6.6044   0.0000   0.0000   0.0000   0.2631
  17.000   1.6517   0.07343   0.06782  -0.0706  0.0217  1.0001  -6.7052   0.0000   0.0000   0.0000   0.2623
  17.250   1.6500   0.07663   0.07111  -0.0703  0.0210  1.0001  -6.8135   0.0000   0.0000   0.0000   0.2616
  17.500   1.6502   0.07962   0.07419  -0.0701  0.0204  1.0001  -6.9332   0.0000   0.0000   0.0000   0.2608
  17.750   1.6489   0.08282   0.07747  -0.0700  0.0198  1.0001  -7.0474   0.0000   0.0000   0.0000   0.2602
  18.000   1.6459   0.08630   0.08102  -0.0700  0.0193  1.0001  -7.1566   0.0000   0.0000   0.0000   0.2596
  18.250   1.6404   0.09015   0.08495  -0.0701  0.0188  1.0001  -7.2498   0.0000   0.0000   0.0000   0.2592
  18.500   1.6304   0.09471   0.08959  -0.0704  0.0183  1.0001  -7.3103   0.0000   0.0000   0.0000   0.2590
  18.750   1.6282   0.09823   0.09320  -0.0707  0.0179  1.0001  -7.4218   0.0000   0.0000   0.0000   0.2586
  19.000   1.6255   0.10185   0.09692  -0.0712  0.0175  1.0001  -7.5293   0.0000   0.0000   0.0000   0.2583
  19.250   1.6215   0.10563   0.10078  -0.0717  0.0171  1.0001  -7.6284   0.0000   0.0000   0.0000   0.2581
  19.500   1.6170   0.10953   0.10478  -0.0724  0.0167  1.0001  -7.7233   0.0000   0.0000   0.0000   0.2580
  19.750   1.6113   0.11367   0.10900  -0.0732  0.0163  1.0001  -7.8088   0.0000   0.0000   0.0000   0.2580
  20.000   1.6037   0.11814   0.11355  -0.0743  0.0160  1.0001  -7.8782   0.0000   0.0000   0.0000   0.2582


