xflr5 v6.61

 Calculated polar for: QX0026 thickness=13.65

 1 1 Reynolds number fixed          Mach number fixed         

 xtrf =   1.000 (top)        1.000 (bottom)
 Mach =   0.000     Re =     0.840 e 6     Ncrit =   9.000

  alpha     CL        CD       CDp       Cm    Top Xtr Bot Xtr   Cpmin    Chinge    XCp    
 ------- -------- --------- --------- -------- ------- ------- -------- --------- ---------
 -10.000  -0.2414   0.08248   0.07983  -0.0792  0.8047  0.0205  -2.8361   0.0000   0.0000   0.0000  -0.1075
  -9.750  -0.2325   0.08022   0.07755  -0.0807  0.8013  0.0208  -2.7509   0.0000   0.0000   0.0000  -0.1263
  -9.250  -0.4134   0.01751   0.01217  -0.1294  0.7900  0.0199  -6.0946   0.0000   0.0000   0.0000  -0.0823
  -9.000  -0.3891   0.01651   0.01109  -0.1295  0.7868  0.0205  -5.8817   0.0000   0.0000   0.0000  -0.1024
  -8.750  -0.3628   0.01600   0.01052  -0.1296  0.7840  0.0210  -5.6430   0.0000   0.0000   0.0000  -0.1274
  -8.500  -0.3361   0.01553   0.00997  -0.1297  0.7811  0.0215  -5.4099   0.0000   0.0000   0.0000  -0.1569
  -8.250  -0.3092   0.01502   0.00939  -0.1298  0.7779  0.0221  -5.1843   0.0000   0.0000   0.0000  -0.1916
  -8.000  -0.2822   0.01455   0.00882  -0.1299  0.7750  0.0227  -4.9631   0.0000   0.0000   0.0000  -0.2332
  -7.750  -0.2547   0.01419   0.00833  -0.1300  0.7725  0.0232  -4.7412   0.0000   0.0000   0.0000  -0.2846
  -7.500  -0.2287   0.01338   0.00747  -0.1301  0.7695  0.0240  -4.5414   0.0000   0.0000   0.0000  -0.3445
  -7.250  -0.2012   0.01300   0.00706  -0.1302  0.7665  0.0247  -4.3174   0.0000   0.0000   0.0000  -0.4251
  -7.000  -0.1733   0.01272   0.00673  -0.1304  0.7640  0.0257  -4.1108   0.0000   0.0000   0.0000  -0.5332
  -6.750  -0.1452   0.01244   0.00639  -0.1305  0.7613  0.0266  -3.9133   0.0000   0.0000   0.0000  -0.6840
  -6.500  -0.1174   0.01207   0.00596  -0.1307  0.7584  0.0274  -3.7256   0.0000   0.0000   0.0000  -0.9047
  -6.250  -0.0899   0.01161   0.00547  -0.1308  0.7556  0.0285  -3.5389   0.0000   0.0000   0.0000  -1.2559
  -6.000  -0.0617   0.01137   0.00519  -0.1310  0.7532  0.0297  -3.3468   0.0000   0.0000   0.0000  -1.9446
  -5.750  -0.0333   0.01113   0.00491  -0.1311  0.7504  0.0309  -3.1607   0.0000   0.0000   0.0000  -3.8160
  -5.500  -0.0053   0.01077   0.00452  -0.1313  0.7475  0.0324  -2.9818   0.0000   0.0000   0.0000  -25.4038
  -5.250   0.0232   0.01057   0.00430  -0.1315  0.7449  0.0340  -2.7967   0.0000   0.0000   0.0000   6.0768
  -5.000   0.0519   0.01042   0.00408  -0.1317  0.7425  0.0357  -2.6242   0.0000   0.0000   0.0000   2.8542
  -4.750   0.0801   0.01009   0.00377  -0.1319  0.7395  0.0378  -2.4676   0.0000   0.0000   0.0000   1.9369
  -4.500   0.1088   0.00992   0.00358  -0.1321  0.7366  0.0400  -2.3090   0.0000   0.0000   0.0000   1.4919
  -4.250   0.1374   0.00970   0.00334  -0.1323  0.7340  0.0428  -2.1547   0.0000   0.0000   0.0000   1.2338
  -3.750   0.1948   0.00936   0.00299  -0.1327  0.7281  0.0498  -1.8522   0.0000   0.0000   0.0000   0.9439
  -3.500   0.2236   0.00918   0.00281  -0.1329  0.7252  0.0544  -1.7109   0.0000   0.0000   0.0000   0.8547
  -3.250   0.2524   0.00904   0.00266  -0.1331  0.7226  0.0605  -1.5788   0.0000   0.0000   0.0000   0.7858
  -3.000   0.2811   0.00888   0.00253  -0.1333  0.7193  0.0686  -1.4497   0.0000   0.0000   0.0000   0.7311
  -2.750   0.3099   0.00870   0.00241  -0.1336  0.7162  0.0810  -1.3232   0.0000   0.0000   0.0000   0.6865
  -2.500   0.3386   0.00853   0.00229  -0.1338  0.7134  0.1016  -1.1990   0.0000   0.0000   0.0000   0.6496
  -2.250   0.3672   0.00835   0.00221  -0.1341  0.7104  0.1308  -1.0860   0.0000   0.0000   0.0000   0.6186
  -2.000   0.3958   0.00816   0.00215  -0.1343  0.7070  0.1675  -0.9766   0.0000   0.0000   0.0000   0.5921
  -1.750   0.4245   0.00801   0.00209  -0.1346  0.7039  0.2057  -0.8694   0.0000   0.0000   0.0000   0.5691
  -1.500   0.4532   0.00788   0.00206  -0.1349  0.7010  0.2434  -0.7895   0.0000   0.0000   0.0000   0.5490
  -1.250   0.4819   0.00775   0.00204  -0.1351  0.6974  0.2808  -0.8074   0.0000   0.0000   0.0000   0.5312
  -1.000   0.5106   0.00761   0.00201  -0.1354  0.6941  0.3216  -0.8259   0.0000   0.0000   0.0000   0.5155
  -0.750   0.5393   0.00751   0.00200  -0.1357  0.6911  0.3688  -0.8448   0.0000   0.0000   0.0000   0.5014
  -0.500   0.5677   0.00734   0.00201  -0.1359  0.6874  0.4245  -0.8641   0.0000   0.0000   0.0000   0.4888
  -0.250   0.5961   0.00717   0.00202  -0.1361  0.6838  0.4927  -0.8839   0.0000   0.0000   0.0000   0.4773
   0.000   0.6243   0.00701   0.00204  -0.1363  0.6806  0.5740  -0.9041   0.0000   0.0000   0.0000   0.4669
   0.250   0.6519   0.00680   0.00211  -0.1364  0.6766  0.6645  -0.9245   0.0000   0.0000   0.0000   0.4573
   0.500   0.6795   0.00667   0.00215  -0.1363  0.6728  0.7316  -0.9455   0.0000   0.0000   0.0000   0.4484
   0.750   0.7064   0.00656   0.00219  -0.1360  0.6692  0.7960  -0.9667   0.0000   0.0000   0.0000   0.4400
   1.000   0.7301   0.00637   0.00225  -0.1349  0.6649  0.8797  -0.9867   0.0000   0.0000   0.0000   0.4319
   1.250   0.7631   0.00623   0.00222  -0.1357  0.6610  0.9913  -1.0126   0.0000   0.0000   0.0000   0.4247
   1.500   0.7930   0.00627   0.00224  -0.1362  0.6566  1.0001  -1.0372   0.0000   0.0000   0.0000   0.4183
   1.750   0.8213   0.00632   0.00226  -0.1364  0.6519  1.0001  -1.0616   0.0000   0.0000   0.0000   0.4122
   2.000   0.8495   0.00639   0.00229  -0.1365  0.6475  1.0001  -1.0868   0.0000   0.0000   0.0000   0.4065
   2.250   0.8777   0.00644   0.00232  -0.1366  0.6422  1.0001  -1.1127   0.0000   0.0000   0.0000   0.4012
   2.500   0.9057   0.00652   0.00236  -0.1367  0.6374  1.0001  -1.1394   0.0000   0.0000   0.0000   0.3962
   2.750   0.9338   0.00657   0.00241  -0.1368  0.6315  1.0001  -1.1671   0.0000   0.0000   0.0000   0.3914
   3.000   0.9616   0.00666   0.00247  -0.1369  0.6260  1.0001  -1.1956   0.0000   0.0000   0.0000   0.3869
   3.250   0.9894   0.00673   0.00252  -0.1369  0.6196  1.0001  -1.2254   0.0000   0.0000   0.0000   0.3827
   3.500   1.0171   0.00681   0.00260  -0.1370  0.6130  1.0001  -1.2564   0.0000   0.0000   0.0000   0.3787
   3.750   1.0444   0.00692   0.00267  -0.1369  0.6063  1.0001  -1.2885   0.0000   0.0000   0.0000   0.3748
   4.000   1.0718   0.00701   0.00275  -0.1370  0.5983  1.0001  -1.3224   0.0000   0.0000   0.0000   0.3711
   4.250   1.0990   0.00711   0.00285  -0.1369  0.5902  1.0001  -1.3578   0.0000   0.0000   0.0000   0.3676
   4.500   1.1257   0.00724   0.00295  -0.1368  0.5814  1.0001  -1.3949   0.0000   0.0000   0.0000   0.3642
   4.750   1.1522   0.00737   0.00306  -0.1367  0.5717  1.0001  -1.4341   0.0000   0.0000   0.0000   0.3609
   5.000   1.1784   0.00753   0.00319  -0.1364  0.5610  1.0001  -1.4756   0.0000   0.0000   0.0000   0.3578
   5.250   1.2042   0.00769   0.00333  -0.1362  0.5490  1.0001  -1.5200   0.0000   0.0000   0.0000   0.3548
   5.500   1.2295   0.00788   0.00348  -0.1358  0.5357  1.0001  -1.5688   0.0000   0.0000   0.0000   0.3518
   5.750   1.2538   0.00812   0.00367  -0.1353  0.5211  1.0001  -1.6263   0.0000   0.0000   0.0000   0.3489
   6.000   1.2778   0.00838   0.00387  -0.1347  0.5051  1.0001  -1.7002   0.0000   0.0000   0.0000   0.3461
   6.250   1.3005   0.00869   0.00411  -0.1340  0.4877  1.0001  -1.7790   0.0000   0.0000   0.0000   0.3433
   6.500   1.3228   0.00902   0.00438  -0.1331  0.4689  1.0001  -1.8623   0.0000   0.0000   0.0000   0.3405
   6.750   1.3440   0.00940   0.00467  -0.1321  0.4492  1.0001  -1.9486   0.0000   0.0000   0.0000   0.3378
   7.000   1.3645   0.00981   0.00500  -0.1309  0.4296  1.0001  -2.0398   0.0000   0.0000   0.0000   0.3352
   7.250   1.3842   0.01023   0.00534  -0.1297  0.4108  1.0001  -2.1376   0.0000   0.0000   0.0000   0.3325
   7.500   1.4038   0.01065   0.00569  -0.1284  0.3922  1.0001  -2.2438   0.0000   0.0000   0.0000   0.3299
   7.750   1.4221   0.01110   0.00608  -0.1270  0.3738  1.0001  -2.3514   0.0000   0.0000   0.0000   0.3273
   8.000   1.4375   0.01159   0.00649  -0.1250  0.3557  1.0001  -2.4576   0.0000   0.0000   0.0000   0.3246
   8.250   1.4514   0.01214   0.00697  -0.1227  0.3369  1.0001  -2.5613   0.0000   0.0000   0.0000   0.3218
   8.500   1.4648   0.01275   0.00750  -0.1205  0.3173  1.0001  -2.6681   0.0000   0.0000   0.0000   0.3192
   8.750   1.4771   0.01345   0.00811  -0.1183  0.2973  1.0001  -2.7771   0.0000   0.0000   0.0000   0.3165
   9.000   1.4884   0.01424   0.00881  -0.1160  0.2771  1.0001  -2.8845   0.0000   0.0000   0.0000   0.3140
   9.250   1.4987   0.01513   0.00961  -0.1137  0.2568  1.0001  -2.9902   0.0000   0.0000   0.0000   0.3115
   9.500   1.5087   0.01610   0.01049  -0.1115  0.2367  1.0001  -3.0962   0.0000   0.0000   0.0000   0.3091
   9.750   1.5180   0.01715   0.01146  -0.1093  0.2169  1.0001  -3.2052   0.0000   0.0000   0.0000   0.3068
  10.000   1.5266   0.01830   0.01252  -0.1072  0.1976  1.0001  -3.3158   0.0000   0.0000   0.0000   0.3046
  10.250   1.5343   0.01955   0.01368  -0.1051  0.1787  1.0001  -3.4248   0.0000   0.0000   0.0000   0.3024
  10.500   1.5415   0.02087   0.01491  -0.1030  0.1611  1.0001  -3.5331   0.0000   0.0000   0.0000   0.3002
  10.750   1.5485   0.02224   0.01620  -0.1010  0.1446  1.0001  -3.6416   0.0000   0.0000   0.0000   0.2982
  11.250   1.5606   0.02520   0.01901  -0.0970  0.1144  1.0001  -3.8565   0.0000   0.0000   0.0000   0.2942
  11.750   1.5721   0.02829   0.02201  -0.0932  0.0899  1.0001  -4.0857   0.0000   0.0000   0.0000   0.2904
  12.000   1.5779   0.02988   0.02356  -0.0914  0.0803  1.0001  -4.2018   0.0000   0.0000   0.0000   0.2885
  12.250   1.5836   0.03150   0.02516  -0.0897  0.0719  1.0001  -4.3183   0.0000   0.0000   0.0000   0.2868
  12.500   1.5885   0.03319   0.02683  -0.0880  0.0647  1.0001  -4.4331   0.0000   0.0000   0.0000   0.2850
  12.750   1.5945   0.03485   0.02850  -0.0865  0.0586  1.0001  -4.5525   0.0000   0.0000   0.0000   0.2834
  13.000   1.6002   0.03658   0.03023  -0.0851  0.0533  1.0001  -4.6737   0.0000   0.0000   0.0000   0.2817
  13.250   1.6057   0.03837   0.03202  -0.0837  0.0490  1.0001  -4.8009   0.0000   0.0000   0.0000   0.2802
  13.500   1.6111   0.04019   0.03386  -0.0823  0.0452  1.0001  -4.9286   0.0000   0.0000   0.0000   0.2786
  13.750   1.6172   0.04199   0.03570  -0.0811  0.0420  1.0001  -5.0605   0.0000   0.0000   0.0000   0.2772
  14.000   1.6222   0.04394   0.03768  -0.0799  0.0393  1.0001  -5.1884   0.0000   0.0000   0.0000   0.2757
  14.250   1.6267   0.04598   0.03975  -0.0788  0.0367  1.0001  -5.3150   0.0000   0.0000   0.0000   0.2744
  14.500   1.6319   0.04797   0.04179  -0.0777  0.0345  1.0001  -5.4458   0.0000   0.0000   0.0000   0.2730
  14.750   1.6349   0.05021   0.04406  -0.0767  0.0325  1.0001  -5.5671   0.0000   0.0000   0.0000   0.2717
  15.000   1.6394   0.05235   0.04625  -0.0757  0.0308  1.0001  -5.7003   0.0000   0.0000   0.0000   0.2705
  15.250   1.6425   0.05468   0.04863  -0.0748  0.0292  1.0001  -5.8317   0.0000   0.0000   0.0000   0.2693
  15.500   1.6437   0.05724   0.05125  -0.0740  0.0279  1.0001  -5.9541   0.0000   0.0000   0.0000   0.2681
  15.750   1.6478   0.05956   0.05363  -0.0733  0.0267  1.0001  -6.0916   0.0000   0.0000   0.0000   0.2670
  16.000   1.6489   0.06220   0.05632  -0.0725  0.0256  1.0001  -6.2155   0.0000   0.0000   0.0000   0.2660
  16.250   1.6470   0.06523   0.05941  -0.0718  0.0246  1.0001  -6.3219   0.0000   0.0000   0.0000   0.2650
  16.500   1.6502   0.06773   0.06199  -0.0713  0.0237  1.0001  -6.4573   0.0000   0.0000   0.0000   0.2640
  16.750   1.6512   0.07052   0.06485  -0.0709  0.0228  1.0001  -6.5818   0.0000   0.0000   0.0000   0.2631
  17.000   1.6494   0.07369   0.06808  -0.0705  0.0220  1.0001  -6.6909   0.0000   0.0000   0.0000   0.2623
  17.250   1.6444   0.07733   0.07179  -0.0702  0.0213  1.0001  -6.7794   0.0000   0.0000   0.0000   0.2617
  17.500   1.6451   0.08025   0.07481  -0.0700  0.0207  1.0001  -6.9016   0.0000   0.0000   0.0000   0.2609
  17.750   1.6440   0.08344   0.07808  -0.0699  0.0201  1.0001  -7.0149   0.0000   0.0000   0.0000   0.2603
  18.000   1.6417   0.08684   0.08156  -0.0699  0.0195  1.0001  -7.1276   0.0000   0.0000   0.0000   0.2597
  18.250   1.6374   0.09055   0.08534  -0.0700  0.0190  1.0001  -7.2280   0.0000   0.0000   0.0000   0.2593
  18.500   1.6296   0.09480   0.08967  -0.0704  0.0186  1.0001  -7.3042   0.0000   0.0000   0.0000   0.2590
  18.750   1.6214   0.09919   0.09415  -0.0708  0.0181  1.0001  -7.3742   0.0000   0.0000   0.0000   0.2589
  19.000   1.6193   0.10271   0.09776  -0.0713  0.0178  1.0001  -7.4851   0.0000   0.0000   0.0000   0.2585
  19.250   1.6156   0.10646   0.10161  -0.0718  0.0174  1.0001  -7.5851   0.0000   0.0000   0.0000   0.2583
  19.500   1.6113   0.11035   0.10560  -0.0725  0.0169  1.0001  -7.6804   0.0000   0.0000   0.0000   0.2582
  19.750   1.6064   0.11437   0.10970  -0.0734  0.0166  1.0001  -7.7708   0.0000   0.0000   0.0000   0.2582
  20.000   1.6000   0.11868   0.11409  -0.0744  0.0162  1.0001  -7.8485   0.0000   0.0000   0.0000   0.2584


