xflr5 v6.61

 Calculated polar for: QX0026 thickness=13.65

 1 1 Reynolds number fixed          Mach number fixed         

 xtrf =   1.000 (top)        1.000 (bottom)
 Mach =   0.000     Re =     0.740 e 6     Ncrit =   9.000

  alpha     CL        CD       CDp       Cm    Top Xtr Bot Xtr   Cpmin    Chinge    XCp    
 ------- -------- --------- --------- -------- ------- ------- -------- --------- ---------
 -10.000  -0.4789   0.02210   0.01728  -0.1293  0.8066  0.0195  -6.5939   0.0000   0.0000   0.0000  -0.0388
  -9.750  -0.4550   0.02122   0.01619  -0.1295  0.8034  0.0198  -6.3894   0.0000   0.0000   0.0000  -0.0535
  -9.500  -0.4350   0.01935   0.01415  -0.1297  0.8001  0.0204  -6.2298   0.0000   0.0000   0.0000  -0.0671
  -9.250  -0.4094   0.01878   0.01353  -0.1298  0.7966  0.0209  -5.9862   0.0000   0.0000   0.0000  -0.0864
  -9.000  -0.3836   0.01822   0.01289  -0.1299  0.7936  0.0214  -5.7519   0.0000   0.0000   0.0000  -0.1085
  -8.750  -0.3578   0.01754   0.01208  -0.1300  0.7906  0.0219  -5.5352   0.0000   0.0000   0.0000  -0.1338
  -8.500  -0.3319   0.01684   0.01126  -0.1301  0.7873  0.0225  -5.3253   0.0000   0.0000   0.0000  -0.1631
  -8.250  -0.3054   0.01625   0.01051  -0.1302  0.7844  0.0230  -5.1147   0.0000   0.0000   0.0000  -0.1982
  -8.000  -0.2796   0.01544   0.00956  -0.1302  0.7817  0.0236  -4.9175   0.0000   0.0000   0.0000  -0.2387
  -7.750  -0.2535   0.01472   0.00881  -0.1303  0.7785  0.0243  -4.7056   0.0000   0.0000   0.0000  -0.2884
  -7.500  -0.2262   0.01432   0.00836  -0.1305  0.7757  0.0250  -4.4826   0.0000   0.0000   0.0000  -0.3527
  -7.250  -0.1987   0.01396   0.00792  -0.1306  0.7731  0.0258  -4.2653   0.0000   0.0000   0.0000  -0.4354
  -7.000  -0.1709   0.01362   0.00750  -0.1307  0.7701  0.0268  -4.0648   0.0000   0.0000   0.0000  -0.5461
  -6.750  -0.1438   0.01305   0.00686  -0.1308  0.7672  0.0277  -3.8857   0.0000   0.0000   0.0000  -0.6947
  -6.500  -0.1164   0.01264   0.00642  -0.1309  0.7646  0.0287  -3.6941   0.0000   0.0000   0.0000  -0.9170
  -6.250  -0.0884   0.01234   0.00608  -0.1311  0.7620  0.0298  -3.5038   0.0000   0.0000   0.0000  -1.2859
  -6.000  -0.0602   0.01205   0.00574  -0.1312  0.7590  0.0309  -3.3199   0.0000   0.0000   0.0000  -2.0019
  -5.750  -0.0326   0.01161   0.00526  -0.1313  0.7562  0.0322  -3.1440   0.0000   0.0000   0.0000  -3.9115
  -5.500  -0.0043   0.01137   0.00499  -0.1315  0.7538  0.0337  -2.9577   0.0000   0.0000   0.0000  -31.2703
  -5.250   0.0242   0.01118   0.00475  -0.1317  0.7510  0.0354  -2.7780   0.0000   0.0000   0.0000   5.8478
  -5.000   0.0522   0.01081   0.00439  -0.1319  0.7480  0.0372  -2.6121   0.0000   0.0000   0.0000   2.8442
  -4.750   0.0807   0.01061   0.00415  -0.1320  0.7453  0.0393  -2.4526   0.0000   0.0000   0.0000   1.9268
  -4.500   0.1092   0.01038   0.00387  -0.1322  0.7429  0.0417  -2.2994   0.0000   0.0000   0.0000   1.4890
  -4.250   0.1378   0.01018   0.00369  -0.1324  0.7398  0.0446  -2.1440   0.0000   0.0000   0.0000   1.2325
  -4.000   0.1663   0.00995   0.00345  -0.1326  0.7368  0.0479  -1.9943   0.0000   0.0000   0.0000   1.0640
  -3.750   0.1950   0.00979   0.00326  -0.1328  0.7341  0.0517  -1.8464   0.0000   0.0000   0.0000   0.9439
  -3.500   0.2237   0.00963   0.00309  -0.1330  0.7313  0.0566  -1.7054   0.0000   0.0000   0.0000   0.8549
  -3.250   0.2523   0.00944   0.00293  -0.1332  0.7281  0.0630  -1.5752   0.0000   0.0000   0.0000   0.7864
  -3.000   0.2810   0.00924   0.00276  -0.1334  0.7251  0.0718  -1.4471   0.0000   0.0000   0.0000   0.7317
  -2.750   0.3098   0.00909   0.00263  -0.1337  0.7225  0.0855  -1.3209   0.0000   0.0000   0.0000   0.6870
  -2.500   0.3383   0.00888   0.00253  -0.1339  0.7191  0.1082  -1.1980   0.0000   0.0000   0.0000   0.6503
  -2.250   0.3669   0.00868   0.00243  -0.1342  0.7159  0.1409  -1.0856   0.0000   0.0000   0.0000   0.6193
  -2.000   0.3955   0.00850   0.00236  -0.1345  0.7131  0.1806  -0.9763   0.0000   0.0000   0.0000   0.5927
  -1.750   0.4241   0.00834   0.00232  -0.1347  0.7099  0.2198  -0.8694   0.0000   0.0000   0.0000   0.5697
  -1.500   0.4527   0.00820   0.00228  -0.1350  0.7064  0.2582  -0.7887   0.0000   0.0000   0.0000   0.5495
  -1.250   0.4814   0.00806   0.00225  -0.1352  0.7034  0.2978  -0.8067   0.0000   0.0000   0.0000   0.5317
  -1.000   0.5100   0.00794   0.00223  -0.1355  0.7003  0.3423  -0.8251   0.0000   0.0000   0.0000   0.5159
  -0.750   0.5385   0.00778   0.00223  -0.1357  0.6966  0.3939  -0.8439   0.0000   0.0000   0.0000   0.5019
  -0.500   0.5669   0.00762   0.00222  -0.1359  0.6933  0.4561  -0.8632   0.0000   0.0000   0.0000   0.4892
  -0.250   0.5952   0.00745   0.00224  -0.1362  0.6900  0.5315  -0.8829   0.0000   0.0000   0.0000   0.4777
   0.000   0.6228   0.00723   0.00229  -0.1362  0.6861  0.6199  -0.9029   0.0000   0.0000   0.0000   0.4673
   0.250   0.6503   0.00707   0.00234  -0.1361  0.6826  0.7042  -0.9233   0.0000   0.0000   0.0000   0.4575
   0.500   0.6773   0.00694   0.00238  -0.1359  0.6790  0.7685  -0.9439   0.0000   0.0000   0.0000   0.4485
   0.750   0.7024   0.00677   0.00243  -0.1352  0.6749  0.8421  -0.9641   0.0000   0.0000   0.0000   0.4399
   1.250   0.7639   0.00658   0.00242  -0.1360  0.6670  1.0001  -1.0126   0.0000   0.0000   0.0000   0.4249
   1.500   0.7921   0.00662   0.00243  -0.1361  0.6626  1.0001  -1.0363   0.0000   0.0000   0.0000   0.4184
   1.750   0.8204   0.00669   0.00245  -0.1363  0.6585  1.0001  -1.0607   0.0000   0.0000   0.0000   0.4123
   2.000   0.8485   0.00673   0.00249  -0.1364  0.6534  1.0001  -1.0858   0.0000   0.0000   0.0000   0.4066
   2.250   0.8767   0.00681   0.00251  -0.1365  0.6491  1.0001  -1.1117   0.0000   0.0000   0.0000   0.4012
   2.500   0.9047   0.00686   0.00256  -0.1366  0.6435  1.0001  -1.1384   0.0000   0.0000   0.0000   0.3962
   3.000   0.9605   0.00699   0.00266  -0.1367  0.6325  1.0001  -1.1945   0.0000   0.0000   0.0000   0.3869
   3.250   0.9881   0.00708   0.00271  -0.1367  0.6269  1.0001  -1.2242   0.0000   0.0000   0.0000   0.3827
   3.500   1.0157   0.00715   0.00278  -0.1368  0.6201  1.0001  -1.2551   0.0000   0.0000   0.0000   0.3786
   3.750   1.0432   0.00724   0.00286  -0.1368  0.6134  1.0001  -1.2873   0.0000   0.0000   0.0000   0.3748
   4.250   1.0974   0.00744   0.00303  -0.1366  0.5982  1.0001  -1.3562   0.0000   0.0000   0.0000   0.3675
   4.500   1.1242   0.00755   0.00313  -0.1365  0.5897  1.0001  -1.3934   0.0000   0.0000   0.0000   0.3641
   4.750   1.1507   0.00768   0.00324  -0.1364  0.5806  1.0001  -1.4325   0.0000   0.0000   0.0000   0.3609
   5.000   1.1769   0.00782   0.00337  -0.1362  0.5707  1.0001  -1.4739   0.0000   0.0000   0.0000   0.3577
   5.250   1.2027   0.00798   0.00350  -0.1359  0.5596  1.0001  -1.5183   0.0000   0.0000   0.0000   0.3547
   5.500   1.2280   0.00816   0.00365  -0.1355  0.5472  1.0001  -1.5669   0.0000   0.0000   0.0000   0.3517
   5.750   1.2527   0.00837   0.00383  -0.1351  0.5336  1.0001  -1.6244   0.0000   0.0000   0.0000   0.3488
   6.000   1.2765   0.00862   0.00402  -0.1344  0.5188  1.0001  -1.6977   0.0000   0.0000   0.0000   0.3460
   6.250   1.2998   0.00890   0.00424  -0.1338  0.5020  1.0001  -1.7772   0.0000   0.0000   0.0000   0.3432
   6.500   1.3218   0.00923   0.00451  -0.1328  0.4843  1.0001  -1.8599   0.0000   0.0000   0.0000   0.3404
   7.000   1.3631   0.01000   0.00512  -0.1306  0.4453  1.0001  -2.0365   0.0000   0.0000   0.0000   0.3350
   7.250   1.3829   0.01041   0.00547  -0.1294  0.4262  1.0001  -2.1343   0.0000   0.0000   0.0000   0.3324
   7.500   1.4018   0.01085   0.00584  -0.1280  0.4079  1.0001  -2.2384   0.0000   0.0000   0.0000   0.3297
   8.000   1.4351   0.01179   0.00664  -0.1244  0.3714  1.0001  -2.4506   0.0000   0.0000   0.0000   0.3244
   8.250   1.4492   0.01233   0.00712  -0.1222  0.3532  1.0001  -2.5546   0.0000   0.0000   0.0000   0.3216
   8.500   1.4623   0.01295   0.00766  -0.1200  0.3344  1.0001  -2.6596   0.0000   0.0000   0.0000   0.3189
   8.750   1.4744   0.01366   0.00829  -0.1177  0.3148  1.0001  -2.7680   0.0000   0.0000   0.0000   0.3163
   9.000   1.4857   0.01445   0.00899  -0.1154  0.2948  1.0001  -2.8752   0.0000   0.0000   0.0000   0.3137
   9.250   1.4962   0.01533   0.00980  -0.1131  0.2745  1.0001  -2.9814   0.0000   0.0000   0.0000   0.3113
   9.500   1.5059   0.01632   0.01069  -0.1109  0.2541  1.0001  -3.0863   0.0000   0.0000   0.0000   0.3089
   9.750   1.5150   0.01739   0.01168  -0.1087  0.2340  1.0001  -3.1937   0.0000   0.0000   0.0000   0.3066
  10.000   1.5232   0.01856   0.01276  -0.1066  0.2143  1.0001  -3.3031   0.0000   0.0000   0.0000   0.3043
  10.250   1.5308   0.01983   0.01394  -0.1045  0.1951  1.0001  -3.4112   0.0000   0.0000   0.0000   0.3021
  10.500   1.5374   0.02119   0.01521  -0.1023  0.1765  1.0001  -3.5175   0.0000   0.0000   0.0000   0.3000
  10.750   1.5440   0.02260   0.01654  -0.1003  0.1589  1.0001  -3.6242   0.0000   0.0000   0.0000   0.2979
  11.000   1.5501   0.02406   0.01792  -0.0983  0.1426  1.0001  -3.7305   0.0000   0.0000   0.0000   0.2959
  11.250   1.5556   0.02560   0.01939  -0.0963  0.1270  1.0001  -3.8360   0.0000   0.0000   0.0000   0.2939
  11.500   1.5606   0.02720   0.02093  -0.0943  0.1126  1.0001  -3.9467   0.0000   0.0000   0.0000   0.2920
  11.750   1.5652   0.02885   0.02252  -0.0924  0.0998  1.0001  -4.0572   0.0000   0.0000   0.0000   0.2901
  12.000   1.5699   0.03053   0.02416  -0.0906  0.0886  1.0001  -4.1686   0.0000   0.0000   0.0000   0.2883
  12.250   1.5751   0.03219   0.02580  -0.0888  0.0792  1.0001  -4.2827   0.0000   0.0000   0.0000   0.2865
  12.500   1.5795   0.03394   0.02752  -0.0871  0.0711  1.0001  -4.3949   0.0000   0.0000   0.0000   0.2847
  12.750   1.5844   0.03572   0.02929  -0.0855  0.0642  1.0001  -4.5092   0.0000   0.0000   0.0000   0.2831
  13.000   1.5896   0.03751   0.03109  -0.0841  0.0582  1.0001  -4.6256   0.0000   0.0000   0.0000   0.2815
  13.250   1.5945   0.03936   0.03294  -0.0827  0.0532  1.0001  -4.7486   0.0000   0.0000   0.0000   0.2799
  13.500   1.5989   0.04129   0.03488  -0.0813  0.0490  1.0001  -4.8716   0.0000   0.0000   0.0000   0.2784
  13.750   1.6037   0.04324   0.03686  -0.0801  0.0454  1.0001  -4.9964   0.0000   0.0000   0.0000   0.2769
  14.000   1.6090   0.04519   0.03885  -0.0789  0.0423  1.0001  -5.1243   0.0000   0.0000   0.0000   0.2755
  14.250   1.6125   0.04734   0.04104  -0.0778  0.0397  1.0001  -5.2451   0.0000   0.0000   0.0000   0.2742
  14.500   1.6167   0.04946   0.04319  -0.0767  0.0372  1.0001  -5.3696   0.0000   0.0000   0.0000   0.2728
  14.750   1.6199   0.05171   0.04549  -0.0757  0.0351  1.0001  -5.4902   0.0000   0.0000   0.0000   0.2716
  15.000   1.6232   0.05401   0.04784  -0.0748  0.0331  1.0001  -5.6128   0.0000   0.0000   0.0000   0.2703
  15.250   1.6249   0.05653   0.05041  -0.0739  0.0315  1.0001  -5.7351   0.0000   0.0000   0.0000   0.2692
  15.500   1.6285   0.05888   0.05282  -0.0732  0.0299  1.0001  -5.8681   0.0000   0.0000   0.0000   0.2681
  15.750   1.6281   0.06169   0.05568  -0.0724  0.0287  1.0001  -5.9816   0.0000   0.0000   0.0000   0.2670
  16.000   1.6293   0.06437   0.05843  -0.0717  0.0275  1.0001  -6.1022   0.0000   0.0000   0.0000   0.2660
  16.250   1.6311   0.06702   0.06116  -0.0712  0.0264  1.0001  -6.2275   0.0000   0.0000   0.0000   0.2650
  16.500   1.6300   0.07006   0.06426  -0.0707  0.0254  1.0001  -6.3382   0.0000   0.0000   0.0000   0.2641
  16.750   1.6258   0.07355   0.06781  -0.0703  0.0245  1.0001  -6.4302   0.0000   0.0000   0.0000   0.2634
  17.000   1.6276   0.07634   0.07069  -0.0700  0.0237  1.0001  -6.5556   0.0000   0.0000   0.0000   0.2626
  17.250   1.6273   0.07941   0.07384  -0.0698  0.0229  1.0001  -6.6707   0.0000   0.0000   0.0000   0.2619
  17.500   1.6243   0.08284   0.07734  -0.0697  0.0222  1.0001  -6.7704   0.0000   0.0000   0.0000   0.2612
  17.750   1.6171   0.08689   0.08146  -0.0697  0.0216  1.0001  -6.8439   0.0000   0.0000   0.0000   0.2608
  18.000   1.6133   0.09057   0.08524  -0.0698  0.0210  1.0001  -6.9370   0.0000   0.0000   0.0000   0.2604
  18.250   1.6114   0.09403   0.08879  -0.0700  0.0205  1.0001  -7.0480   0.0000   0.0000   0.0000   0.2599
  18.500   1.6082   0.09769   0.09255  -0.0704  0.0200  1.0001  -7.1508   0.0000   0.0000   0.0000   0.2596
  18.750   1.6041   0.10152   0.09646  -0.0708  0.0195  1.0001  -7.2472   0.0000   0.0000   0.0000   0.2594
  19.000   1.5979   0.10563   0.10065  -0.0714  0.0191  1.0001  -7.3295   0.0000   0.0000   0.0000   0.2593
  19.250   1.5894   0.11016   0.10525  -0.0723  0.0186  1.0001  -7.3932   0.0000   0.0000   0.0000   0.2594
  19.500   1.5772   0.11530   0.11048  -0.0734  0.0182  1.0001  -7.4271   0.0000   0.0000   0.0000   0.2598
  19.750   1.5750   0.11901   0.11429  -0.0742  0.0179  1.0001  -7.5294   0.0000   0.0000   0.0000   0.2598
  20.000   1.5714   0.12296   0.11834  -0.0753  0.0175  1.0001  -7.6205   0.0000   0.0000   0.0000   0.2599


