xflr5 v6.61

 Calculated polar for: QX0026 thickness=13.65

 1 1 Reynolds number fixed          Mach number fixed         

 xtrf =   1.000 (top)        1.000 (bottom)
 Mach =   0.000     Re =     0.940 e 6     Ncrit =   9.000

  alpha     CL        CD       CDp       Cm    Top Xtr Bot Xtr   Cpmin    Chinge    XCp    
 ------- -------- --------- --------- -------- ------- ------- -------- --------- ---------
 -10.000  -0.4946   0.01826   0.01332  -0.1288  0.7938  0.0180  -6.8778   0.0000   0.0000   0.0000  -0.0287
  -9.750  -0.4692   0.01762   0.01257  -0.1289  0.7907  0.0184  -6.6377   0.0000   0.0000   0.0000  -0.0433
  -9.500  -0.4434   0.01700   0.01186  -0.1290  0.7873  0.0189  -6.3993   0.0000   0.0000   0.0000  -0.0598
  -9.250  -0.4171   0.01649   0.01123  -0.1291  0.7843  0.0193  -6.1594   0.0000   0.0000   0.0000  -0.0787
  -9.000  -0.3902   0.01609   0.01071  -0.1292  0.7815  0.0197  -5.9177   0.0000   0.0000   0.0000  -0.1008
  -8.750  -0.3659   0.01498   0.00949  -0.1293  0.7783  0.0203  -5.7203   0.0000   0.0000   0.0000  -0.1234
  -8.500  -0.3394   0.01445   0.00890  -0.1294  0.7753  0.0208  -5.4849   0.0000   0.0000   0.0000  -0.1519
  -8.250  -0.3123   0.01407   0.00846  -0.1295  0.7727  0.0213  -5.2462   0.0000   0.0000   0.0000  -0.1862
  -8.000  -0.2848   0.01367   0.00802  -0.1297  0.7697  0.0219  -5.0134   0.0000   0.0000   0.0000  -0.2277
  -7.750  -0.2573   0.01329   0.00756  -0.1298  0.7668  0.0226  -4.7869   0.0000   0.0000   0.0000  -0.2782
  -7.500  -0.2296   0.01296   0.00714  -0.1299  0.7642  0.0231  -4.5624   0.0000   0.0000   0.0000  -0.3413
  -7.250  -0.2028   0.01237   0.00648  -0.1300  0.7615  0.0239  -4.3589   0.0000   0.0000   0.0000  -0.4187
  -7.000  -0.1750   0.01201   0.00611  -0.1302  0.7586  0.0247  -4.1520   0.0000   0.0000   0.0000  -0.5242
  -6.750  -0.1468   0.01177   0.00583  -0.1303  0.7559  0.0257  -3.9458   0.0000   0.0000   0.0000  -0.6722
  -6.500  -0.1186   0.01153   0.00552  -0.1305  0.7534  0.0266  -3.7485   0.0000   0.0000   0.0000  -0.8907
  -6.250  -0.0905   0.01121   0.00515  -0.1306  0.7507  0.0274  -3.5592   0.0000   0.0000   0.0000  -1.2440
  -6.000  -0.0627   0.01081   0.00475  -0.1308  0.7478  0.0287  -3.3709   0.0000   0.0000   0.0000  -1.9070
  -5.750  -0.0342   0.01060   0.00450  -0.1310  0.7452  0.0299  -3.1796   0.0000   0.0000   0.0000  -3.6985
  -5.500  -0.0056   0.01044   0.00427  -0.1312  0.7428  0.0311  -2.9928   0.0000   0.0000   0.0000  -23.8102
  -5.250   0.0226   0.01010   0.00395  -0.1314  0.7399  0.0329  -2.8129   0.0000   0.0000   0.0000   6.2266
  -5.000   0.0513   0.00993   0.00376  -0.1316  0.7371  0.0346  -2.6375   0.0000   0.0000   0.0000   2.8841
  -4.750   0.0799   0.00972   0.00350  -0.1317  0.7344  0.0364  -2.4782   0.0000   0.0000   0.0000   1.9403
  -4.500   0.1085   0.00953   0.00330  -0.1320  0.7319  0.0387  -2.3184   0.0000   0.0000   0.0000   1.4947
  -4.250   0.1373   0.00936   0.00311  -0.1322  0.7288  0.0412  -2.1623   0.0000   0.0000   0.0000   1.2338
  -4.000   0.1660   0.00918   0.00294  -0.1324  0.7259  0.0445  -2.0076   0.0000   0.0000   0.0000   1.0637
  -3.750   0.1948   0.00901   0.00276  -0.1326  0.7232  0.0481  -1.8575   0.0000   0.0000   0.0000   0.9436
  -3.500   0.2236   0.00886   0.00261  -0.1328  0.7203  0.0524  -1.7152   0.0000   0.0000   0.0000   0.8543
  -3.250   0.2524   0.00871   0.00247  -0.1330  0.7171  0.0582  -1.5822   0.0000   0.0000   0.0000   0.7854
  -3.000   0.2812   0.00856   0.00234  -0.1333  0.7143  0.0661  -1.4519   0.0000   0.0000   0.0000   0.7306
  -2.750   0.3100   0.00843   0.00223  -0.1335  0.7115  0.0773  -1.3245   0.0000   0.0000   0.0000   0.6860
  -2.500   0.3388   0.00825   0.00213  -0.1338  0.7082  0.0960  -1.1998   0.0000   0.0000   0.0000   0.6492
  -2.250   0.3675   0.00807   0.00204  -0.1340  0.7051  0.1229  -1.0863   0.0000   0.0000   0.0000   0.6181
  -2.000   0.3962   0.00792   0.00197  -0.1343  0.7022  0.1565  -0.9765   0.0000   0.0000   0.0000   0.5916
  -1.500   0.4536   0.00760   0.00189  -0.1348  0.6956  0.2304  -0.7900   0.0000   0.0000   0.0000   0.5486
  -1.250   0.4824   0.00749   0.00186  -0.1351  0.6925  0.2666  -0.8081   0.0000   0.0000   0.0000   0.5308
  -1.000   0.5111   0.00738   0.00185  -0.1354  0.6893  0.3049  -0.8265   0.0000   0.0000   0.0000   0.5151
  -0.750   0.5398   0.00724   0.00184  -0.1356  0.6857  0.3487  -0.8454   0.0000   0.0000   0.0000   0.5011
  -0.500   0.5684   0.00711   0.00183  -0.1359  0.6824  0.3998  -0.8648   0.0000   0.0000   0.0000   0.4884
  -0.250   0.5970   0.00697   0.00184  -0.1362  0.6789  0.4607  -0.8847   0.0000   0.0000   0.0000   0.4770
   0.000   0.6253   0.00679   0.00187  -0.1364  0.6751  0.5362  -0.9049   0.0000   0.0000   0.0000   0.4667
   0.250   0.6533   0.00661   0.00191  -0.1365  0.6716  0.6245  -0.9256   0.0000   0.0000   0.0000   0.4571
   0.500   0.6811   0.00647   0.00197  -0.1365  0.6678  0.7007  -0.9467   0.0000   0.0000   0.0000   0.4483
   0.750   0.7087   0.00635   0.00201  -0.1365  0.6636  0.7605  -0.9682   0.0000   0.0000   0.0000   0.4400
   1.000   0.7348   0.00623   0.00206  -0.1360  0.6600  0.8291  -0.9895   0.0000   0.0000   0.0000   0.4322
   1.250   0.7567   0.00603   0.00211  -0.1344  0.6555  0.9246  -1.0092   0.0000   0.0000   0.0000   0.4244
   1.500   0.7938   0.00599   0.00208  -0.1364  0.6511  1.0001  -1.0380   0.0000   0.0000   0.0000   0.4182
   1.750   0.8221   0.00605   0.00211  -0.1365  0.6466  1.0001  -1.0624   0.0000   0.0000   0.0000   0.4122
   2.000   0.8505   0.00610   0.00214  -0.1367  0.6416  1.0001  -1.0876   0.0000   0.0000   0.0000   0.4065
   2.250   0.8786   0.00617   0.00218  -0.1368  0.6369  1.0001  -1.1135   0.0000   0.0000   0.0000   0.4012
   2.500   0.9068   0.00623   0.00222  -0.1369  0.6312  1.0001  -1.1404   0.0000   0.0000   0.0000   0.3962
   2.750   0.9348   0.00630   0.00227  -0.1370  0.6259  1.0001  -1.1680   0.0000   0.0000   0.0000   0.3914
   3.000   0.9628   0.00637   0.00232  -0.1371  0.6197  1.0001  -1.1967   0.0000   0.0000   0.0000   0.3870
   3.250   0.9907   0.00645   0.00238  -0.1372  0.6134  1.0001  -1.2265   0.0000   0.0000   0.0000   0.3827
   3.500   1.0181   0.00656   0.00245  -0.1372  0.6068  1.0001  -1.2574   0.0000   0.0000   0.0000   0.3787
   3.750   1.0459   0.00664   0.00253  -0.1372  0.5992  1.0001  -1.2898   0.0000   0.0000   0.0000   0.3749
   4.000   1.0732   0.00674   0.00261  -0.1372  0.5914  1.0001  -1.3237   0.0000   0.0000   0.0000   0.3712
   4.250   1.1002   0.00686   0.00271  -0.1372  0.5830  1.0001  -1.3590   0.0000   0.0000   0.0000   0.3677
   4.500   1.1269   0.00700   0.00281  -0.1370  0.5736  1.0001  -1.3961   0.0000   0.0000   0.0000   0.3643
   5.000   1.1796   0.00730   0.00306  -0.1367  0.5518  1.0001  -1.4769   0.0000   0.0000   0.0000   0.3579
   5.250   1.2054   0.00747   0.00320  -0.1364  0.5390  1.0001  -1.5214   0.0000   0.0000   0.0000   0.3549
   5.500   1.2306   0.00768   0.00336  -0.1361  0.5247  1.0001  -1.5703   0.0000   0.0000   0.0000   0.3519
   5.750   1.2548   0.00793   0.00356  -0.1355  0.5093  1.0001  -1.6278   0.0000   0.0000   0.0000   0.3490
   6.000   1.2787   0.00820   0.00377  -0.1350  0.4924  1.0001  -1.7020   0.0000   0.0000   0.0000   0.3462
   6.250   1.3015   0.00853   0.00401  -0.1342  0.4745  1.0001  -1.7810   0.0000   0.0000   0.0000   0.3434
   6.500   1.3235   0.00888   0.00429  -0.1333  0.4551  1.0001  -1.8639   0.0000   0.0000   0.0000   0.3406
   6.750   1.3450   0.00926   0.00458  -0.1323  0.4349  1.0001  -1.9508   0.0000   0.0000   0.0000   0.3380
   7.000   1.3659   0.00965   0.00489  -0.1313  0.4154  1.0001  -2.0430   0.0000   0.0000   0.0000   0.3353
   7.250   1.3861   0.01006   0.00523  -0.1301  0.3969  1.0001  -2.1426   0.0000   0.0000   0.0000   0.3327
   7.500   1.4054   0.01050   0.00558  -0.1288  0.3785  1.0001  -2.2480   0.0000   0.0000   0.0000   0.3301
   7.750   1.4241   0.01094   0.00596  -0.1274  0.3596  1.0001  -2.3571   0.0000   0.0000   0.0000   0.3275
   8.000   1.4401   0.01142   0.00636  -0.1255  0.3409  1.0001  -2.4647   0.0000   0.0000   0.0000   0.3248
   8.250   1.4542   0.01196   0.00682  -0.1233  0.3219  1.0001  -2.5693   0.0000   0.0000   0.0000   0.3221
   8.500   1.4674   0.01258   0.00735  -0.1211  0.3021  1.0001  -2.6763   0.0000   0.0000   0.0000   0.3194
   8.750   1.4797   0.01328   0.00796  -0.1188  0.2818  1.0001  -2.7852   0.0000   0.0000   0.0000   0.3168
   9.000   1.4910   0.01406   0.00866  -0.1165  0.2614  1.0001  -2.8930   0.0000   0.0000   0.0000   0.3142
   9.250   1.5015   0.01494   0.00944  -0.1142  0.2411  1.0001  -2.9996   0.0000   0.0000   0.0000   0.3117
   9.500   1.5113   0.01590   0.01031  -0.1120  0.2213  1.0001  -3.1051   0.0000   0.0000   0.0000   0.3093
   9.750   1.5205   0.01696   0.01128  -0.1098  0.2021  1.0001  -3.2146   0.0000   0.0000   0.0000   0.3070
  10.000   1.5292   0.01810   0.01232  -0.1076  0.1832  1.0001  -3.3257   0.0000   0.0000   0.0000   0.3048
  10.250   1.5375   0.01931   0.01345  -0.1056  0.1652  1.0001  -3.4367   0.0000   0.0000   0.0000   0.3026
  10.500   1.5454   0.02057   0.01464  -0.1035  0.1485  1.0001  -3.5474   0.0000   0.0000   0.0000   0.3005
  10.750   1.5527   0.02192   0.01591  -0.1015  0.1325  1.0001  -3.6571   0.0000   0.0000   0.0000   0.2984
  11.000   1.5593   0.02333   0.01725  -0.0995  0.1175  1.0001  -3.7654   0.0000   0.0000   0.0000   0.2964
  11.250   1.5657   0.02479   0.01865  -0.0976  0.1040  1.0001  -3.8771   0.0000   0.0000   0.0000   0.2944
  11.500   1.5722   0.02628   0.02008  -0.0958  0.0924  1.0001  -3.9942   0.0000   0.0000   0.0000   0.2925
  11.750   1.5783   0.02779   0.02156  -0.0939  0.0824  1.0001  -4.1111   0.0000   0.0000   0.0000   0.2906
  12.000   1.5851   0.02930   0.02304  -0.0922  0.0737  1.0001  -4.2313   0.0000   0.0000   0.0000   0.2888
  12.250   1.5912   0.03087   0.02459  -0.0906  0.0660  1.0001  -4.3502   0.0000   0.0000   0.0000   0.2870
  12.750   1.6032   0.03411   0.02782  -0.0874  0.0541  1.0001  -4.5900   0.0000   0.0000   0.0000   0.2836
  13.250   1.6162   0.03745   0.03117  -0.0846  0.0456  1.0001  -4.8494   0.0000   0.0000   0.0000   0.2804
  13.500   1.6228   0.03915   0.03290  -0.0833  0.0423  1.0001  -4.9833   0.0000   0.0000   0.0000   0.2789
  13.750   1.6285   0.04097   0.03474  -0.0820  0.0394  1.0001  -5.1141   0.0000   0.0000   0.0000   0.2774
  14.000   1.6337   0.04286   0.03666  -0.0808  0.0367  1.0001  -5.2446   0.0000   0.0000   0.0000   0.2759
  14.250   1.6398   0.04473   0.03858  -0.0797  0.0344  1.0001  -5.3792   0.0000   0.0000   0.0000   0.2746
  14.500   1.6435   0.04686   0.04072  -0.0785  0.0323  1.0001  -5.5043   0.0000   0.0000   0.0000   0.2732
  14.750   1.6494   0.04879   0.04271  -0.0776  0.0305  1.0001  -5.6403   0.0000   0.0000   0.0000   0.2719
  15.000   1.6528   0.05100   0.04496  -0.0766  0.0289  1.0001  -5.7728   0.0000   0.0000   0.0000   0.2706
  15.250   1.6566   0.05322   0.04724  -0.0756  0.0275  1.0001  -5.9089   0.0000   0.0000   0.0000   0.2694
  15.500   1.6607   0.05545   0.04952  -0.0748  0.0262  1.0001  -6.0477   0.0000   0.0000   0.0000   0.2682
  15.750   1.6617   0.05805   0.05217  -0.0739  0.0250  1.0001  -6.1715   0.0000   0.0000   0.0000   0.2671
  16.000   1.6646   0.06049   0.05467  -0.0732  0.0240  1.0001  -6.3052   0.0000   0.0000   0.0000   0.2660
  16.250   1.6675   0.06294   0.05719  -0.0726  0.0230  1.0001  -6.4404   0.0000   0.0000   0.0000   0.2649
  16.500   1.6679   0.06570   0.06000  -0.0720  0.0221  1.0001  -6.5633   0.0000   0.0000   0.0000   0.2640
  16.750   1.6648   0.06893   0.06329  -0.0714  0.0213  1.0001  -6.6654   0.0000   0.0000   0.0000   0.2631
  17.000   1.6674   0.07155   0.06599  -0.0710  0.0207  1.0001  -6.7996   0.0000   0.0000   0.0000   0.2622
  17.250   1.6682   0.07442   0.06894  -0.0707  0.0200  1.0001  -6.9246   0.0000   0.0000   0.0000   0.2613
  17.500   1.6672   0.07754   0.07213  -0.0704  0.0194  1.0001  -7.0400   0.0000   0.0000   0.0000   0.2606
  17.750   1.6637   0.08098   0.07563  -0.0702  0.0189  1.0001  -7.1468   0.0000   0.0000   0.0000   0.2599
  18.000   1.6556   0.08507   0.07981  -0.0701  0.0183  1.0001  -7.2241   0.0000   0.0000   0.0000   0.2595
  18.250   1.6546   0.08831   0.08314  -0.0702  0.0179  1.0001  -7.3465   0.0000   0.0000   0.0000   0.2589
  18.500   1.6530   0.09167   0.08658  -0.0703  0.0175  1.0001  -7.4650   0.0000   0.0000   0.0000   0.2584
  18.750   1.6504   0.09519   0.09019  -0.0706  0.0170  1.0001  -7.5775   0.0000   0.0000   0.0000   0.2579
  19.000   1.6468   0.09890   0.09398  -0.0709  0.0166  1.0001  -7.6828   0.0000   0.0000   0.0000   0.2576
  19.250   1.6412   0.10289   0.09804  -0.0715  0.0162  1.0001  -7.7745   0.0000   0.0000   0.0000   0.2574
  19.500   1.6329   0.10728   0.10251  -0.0721  0.0158  1.0001  -7.8456   0.0000   0.0000   0.0000   0.2574
  19.750   1.6207   0.11234   0.10766  -0.0731  0.0155  1.0001  -7.8847   0.0000   0.0000   0.0000   0.2577
  20.000   1.6153   0.11646   0.11189  -0.0741  0.0152  1.0001  -7.9704   0.0000   0.0000   0.0000   0.2577


