xflr5 v6.61

 Calculated polar for: QX0026 thickness=13.65

 1 1 Reynolds number fixed          Mach number fixed         

 xtrf =   1.000 (top)        1.000 (bottom)
 Mach =   0.000     Re =     0.880 e 6     Ncrit =   9.000

  alpha     CL        CD       CDp       Cm    Top Xtr Bot Xtr   Cpmin    Chinge    XCp    
 ------- -------- --------- --------- -------- ------- ------- -------- --------- ---------
 -10.000  -0.4906   0.01923   0.01435  -0.1290  0.7971  0.0184  -6.8005   0.0000   0.0000   0.0000  -0.0313
  -9.750  -0.4659   0.01846   0.01344  -0.1291  0.7940  0.0188  -6.5746   0.0000   0.0000   0.0000  -0.0457
  -9.500  -0.4404   0.01780   0.01264  -0.1292  0.7909  0.0192  -6.3450   0.0000   0.0000   0.0000  -0.0622
  -9.250  -0.4141   0.01729   0.01201  -0.1293  0.7875  0.0196  -6.1075   0.0000   0.0000   0.0000  -0.0815
  -9.000  -0.3903   0.01613   0.01070  -0.1293  0.7845  0.0202  -5.9128   0.0000   0.0000   0.0000  -0.1010
  -8.750  -0.3644   0.01551   0.01001  -0.1295  0.7818  0.0207  -5.6803   0.0000   0.0000   0.0000  -0.1254
  -8.500  -0.3375   0.01505   0.00951  -0.1296  0.7786  0.0212  -5.4417   0.0000   0.0000   0.0000  -0.1547
  -8.250  -0.3105   0.01461   0.00900  -0.1297  0.7756  0.0218  -5.2096   0.0000   0.0000   0.0000  -0.1894
  -8.000  -0.2833   0.01419   0.00847  -0.1298  0.7730  0.0224  -4.9843   0.0000   0.0000   0.0000  -0.2307
  -7.750  -0.2559   0.01378   0.00799  -0.1299  0.7701  0.0230  -4.7612   0.0000   0.0000   0.0000  -0.2817
  -7.500  -0.2288   0.01326   0.00738  -0.1300  0.7671  0.0235  -4.5485   0.0000   0.0000   0.0000  -0.3439
  -7.250  -0.2020   0.01269   0.00677  -0.1301  0.7645  0.0244  -4.3367   0.0000   0.0000   0.0000  -0.4218
  -7.000  -0.1741   0.01243   0.00647  -0.1303  0.7619  0.0253  -4.1279   0.0000   0.0000   0.0000  -0.5292
  -6.750  -0.1459   0.01215   0.00615  -0.1305  0.7590  0.0262  -3.9268   0.0000   0.0000   0.0000  -0.6788
  -6.500  -0.1177   0.01189   0.00583  -0.1306  0.7562  0.0270  -3.7320   0.0000   0.0000   0.0000  -0.9009
  -6.250  -0.0904   0.01139   0.00528  -0.1307  0.7537  0.0281  -3.5506   0.0000   0.0000   0.0000  -1.2475
  -6.000  -0.0621   0.01113   0.00500  -0.1309  0.7510  0.0292  -3.3569   0.0000   0.0000   0.0000  -1.9274
  -5.750  -0.0337   0.01090   0.00474  -0.1311  0.7481  0.0305  -3.1687   0.0000   0.0000   0.0000  -3.7621
  -5.500  -0.0054   0.01063   0.00441  -0.1312  0.7454  0.0318  -2.9869   0.0000   0.0000   0.0000  -24.9161
  -5.250   0.0229   0.01038   0.00414  -0.1314  0.7430  0.0335  -2.8035   0.0000   0.0000   0.0000   6.1422
  -5.000   0.0516   0.01020   0.00395  -0.1316  0.7402  0.0353  -2.6299   0.0000   0.0000   0.0000   2.8692
  -4.750   0.0800   0.00992   0.00365  -0.1318  0.7372  0.0372  -2.4728   0.0000   0.0000   0.0000   1.9393
  -4.500   0.1087   0.00975   0.00346  -0.1320  0.7346  0.0395  -2.3129   0.0000   0.0000   0.0000   1.4932
  -4.250   0.1373   0.00956   0.00323  -0.1322  0.7320  0.0422  -2.1584   0.0000   0.0000   0.0000   1.2339
  -4.000   0.1661   0.00940   0.00309  -0.1324  0.7289  0.0453  -2.0038   0.0000   0.0000   0.0000   1.0635
  -3.750   0.1948   0.00920   0.00289  -0.1326  0.7259  0.0491  -1.8544   0.0000   0.0000   0.0000   0.9438
  -3.500   0.2236   0.00905   0.00272  -0.1329  0.7233  0.0536  -1.7127   0.0000   0.0000   0.0000   0.8545
  -3.250   0.2524   0.00890   0.00258  -0.1331  0.7203  0.0595  -1.5804   0.0000   0.0000   0.0000   0.7857
  -3.000   0.2811   0.00874   0.00245  -0.1333  0.7171  0.0676  -1.4507   0.0000   0.0000   0.0000   0.7309
  -2.750   0.3099   0.00858   0.00233  -0.1335  0.7142  0.0795  -1.3237   0.0000   0.0000   0.0000   0.6863
  -2.500   0.3387   0.00842   0.00222  -0.1338  0.7114  0.0992  -1.1993   0.0000   0.0000   0.0000   0.6494
  -2.250   0.3673   0.00823   0.00214  -0.1340  0.7081  0.1276  -1.0862   0.0000   0.0000   0.0000   0.6184
  -2.000   0.3960   0.00805   0.00207  -0.1343  0.7049  0.1631  -0.9766   0.0000   0.0000   0.0000   0.5919
  -1.750   0.4247   0.00791   0.00202  -0.1346  0.7021  0.2010  -0.8693   0.0000   0.0000   0.0000   0.5689
  -1.500   0.4534   0.00776   0.00199  -0.1349  0.6987  0.2378  -0.7897   0.0000   0.0000   0.0000   0.5488
  -1.250   0.4821   0.00763   0.00196  -0.1351  0.6953  0.2747  -0.8077   0.0000   0.0000   0.0000   0.5311
  -1.000   0.5108   0.00752   0.00193  -0.1354  0.6922  0.3147  -0.8262   0.0000   0.0000   0.0000   0.5153
  -0.750   0.5395   0.00739   0.00193  -0.1357  0.6888  0.3603  -0.8451   0.0000   0.0000   0.0000   0.5013
  -0.500   0.5680   0.00724   0.00193  -0.1359  0.6852  0.4141  -0.8644   0.0000   0.0000   0.0000   0.4886
  -0.250   0.5965   0.00709   0.00194  -0.1361  0.6819  0.4792  -0.8842   0.0000   0.0000   0.0000   0.4772
   0.000   0.6247   0.00691   0.00197  -0.1363  0.6783  0.5582  -0.9044   0.0000   0.0000   0.0000   0.4668
   0.250   0.6525   0.00671   0.00202  -0.1364  0.6744  0.6485  -0.9250   0.0000   0.0000   0.0000   0.4573
   0.500   0.6802   0.00660   0.00206  -0.1364  0.6709  0.7189  -0.9460   0.0000   0.0000   0.0000   0.4483
   0.750   0.7074   0.00647   0.00212  -0.1362  0.6668  0.7809  -0.9673   0.0000   0.0000   0.0000   0.4400
   1.000   0.7323   0.00630   0.00217  -0.1354  0.6627  0.8577  -0.9880   0.0000   0.0000   0.0000   0.4321
   1.250   0.7581   0.00615   0.00218  -0.1346  0.6589  0.9630  -1.0099   0.0000   0.0000   0.0000   0.4244
   1.500   0.7933   0.00615   0.00217  -0.1363  0.6542  1.0001  -1.0375   0.0000   0.0000   0.0000   0.4183
   1.750   0.8216   0.00621   0.00219  -0.1364  0.6499  1.0001  -1.0619   0.0000   0.0000   0.0000   0.4122
   2.000   0.8499   0.00626   0.00223  -0.1366  0.6450  1.0001  -1.0871   0.0000   0.0000   0.0000   0.4065
   2.250   0.8780   0.00633   0.00226  -0.1367  0.6400  1.0001  -1.1130   0.0000   0.0000   0.0000   0.4012
   2.500   0.9062   0.00639   0.00230  -0.1368  0.6347  1.0001  -1.1398   0.0000   0.0000   0.0000   0.3962
   2.750   0.9342   0.00646   0.00235  -0.1369  0.6292  1.0001  -1.1674   0.0000   0.0000   0.0000   0.3914
   3.000   0.9622   0.00653   0.00241  -0.1370  0.6233  1.0001  -1.1961   0.0000   0.0000   0.0000   0.3870
   3.500   1.0176   0.00670   0.00253  -0.1371  0.6103  1.0001  -1.2569   0.0000   0.0000   0.0000   0.3787
   3.750   1.0451   0.00679   0.00261  -0.1371  0.6033  1.0001  -1.2891   0.0000   0.0000   0.0000   0.3748
   4.250   1.0994   0.00701   0.00279  -0.1370  0.5871  1.0001  -1.3583   0.0000   0.0000   0.0000   0.3676
   4.500   1.1263   0.00713   0.00289  -0.1369  0.5780  1.0001  -1.3955   0.0000   0.0000   0.0000   0.3642
   4.750   1.1529   0.00726   0.00300  -0.1368  0.5681  1.0001  -1.4348   0.0000   0.0000   0.0000   0.3610
   5.000   1.1791   0.00742   0.00313  -0.1366  0.5571  1.0001  -1.4763   0.0000   0.0000   0.0000   0.3578
   5.250   1.2047   0.00759   0.00327  -0.1363  0.5448  1.0001  -1.5206   0.0000   0.0000   0.0000   0.3548
   5.500   1.2297   0.00781   0.00343  -0.1359  0.5313  1.0001  -1.5692   0.0000   0.0000   0.0000   0.3518
   5.750   1.2544   0.00803   0.00362  -0.1354  0.5163  1.0001  -1.6272   0.0000   0.0000   0.0000   0.3489
   6.000   1.2781   0.00831   0.00383  -0.1348  0.4998  1.0001  -1.7008   0.0000   0.0000   0.0000   0.3461
   6.250   1.3011   0.00861   0.00406  -0.1341  0.4823  1.0001  -1.7802   0.0000   0.0000   0.0000   0.3433
   6.500   1.3230   0.00896   0.00434  -0.1332  0.4634  1.0001  -1.8628   0.0000   0.0000   0.0000   0.3406
   7.000   1.3649   0.00974   0.00495  -0.1311  0.4236  1.0001  -2.0409   0.0000   0.0000   0.0000   0.3352
   7.250   1.3852   0.01014   0.00529  -0.1299  0.4049  1.0001  -2.1402   0.0000   0.0000   0.0000   0.3326
   7.500   1.4045   0.01058   0.00564  -0.1286  0.3867  1.0001  -2.2457   0.0000   0.0000   0.0000   0.3300
   7.750   1.4225   0.01105   0.00603  -0.1271  0.3681  1.0001  -2.3528   0.0000   0.0000   0.0000   0.3274
   8.000   1.4386   0.01152   0.00643  -0.1252  0.3494  1.0001  -2.4605   0.0000   0.0000   0.0000   0.3247
   8.250   1.4528   0.01205   0.00690  -0.1230  0.3306  1.0001  -2.5653   0.0000   0.0000   0.0000   0.3220
   8.500   1.4661   0.01267   0.00743  -0.1208  0.3110  1.0001  -2.6720   0.0000   0.0000   0.0000   0.3193
   8.750   1.4783   0.01337   0.00804  -0.1185  0.2909  1.0001  -2.7809   0.0000   0.0000   0.0000   0.3166
   9.000   1.4897   0.01416   0.00874  -0.1162  0.2706  1.0001  -2.8885   0.0000   0.0000   0.0000   0.3141
   9.250   1.5001   0.01504   0.00953  -0.1139  0.2501  1.0001  -2.9947   0.0000   0.0000   0.0000   0.3116
   9.500   1.5099   0.01601   0.01041  -0.1117  0.2303  1.0001  -3.1001   0.0000   0.0000   0.0000   0.3092
  10.000   1.5275   0.01823   0.01244  -0.1074  0.1917  1.0001  -3.3196   0.0000   0.0000   0.0000   0.3046
  10.250   1.5356   0.01945   0.01358  -0.1053  0.1731  1.0001  -3.4297   0.0000   0.0000   0.0000   0.3025
  10.500   1.5432   0.02074   0.01479  -0.1032  0.1558  1.0001  -3.5394   0.0000   0.0000   0.0000   0.3003
  10.750   1.5504   0.02210   0.01607  -0.1012  0.1395  1.0001  -3.6486   0.0000   0.0000   0.0000   0.2983
  11.000   1.5568   0.02353   0.01743  -0.0992  0.1241  1.0001  -3.7560   0.0000   0.0000   0.0000   0.2962
  11.250   1.5628   0.02502   0.01885  -0.0972  0.1099  1.0001  -3.8655   0.0000   0.0000   0.0000   0.2943
  11.500   1.5688   0.02654   0.02032  -0.0954  0.0974  1.0001  -3.9807   0.0000   0.0000   0.0000   0.2923
  11.750   1.5747   0.02808   0.02182  -0.0935  0.0868  1.0001  -4.0963   0.0000   0.0000   0.0000   0.2905
  12.000   1.5808   0.02965   0.02335  -0.0918  0.0774  1.0001  -4.2136   0.0000   0.0000   0.0000   0.2886
  12.250   1.5866   0.03125   0.02493  -0.0901  0.0695  1.0001  -4.3311   0.0000   0.0000   0.0000   0.2869
  12.500   1.5926   0.03286   0.02653  -0.0884  0.0625  1.0001  -4.4499   0.0000   0.0000   0.0000   0.2851
  12.750   1.5984   0.03452   0.02819  -0.0869  0.0566  1.0001  -4.5693   0.0000   0.0000   0.0000   0.2835
  13.000   1.6044   0.03622   0.02989  -0.0854  0.0516  1.0001  -4.6928   0.0000   0.0000   0.0000   0.2818
  13.250   1.6105   0.03795   0.03164  -0.0841  0.0475  1.0001  -4.8230   0.0000   0.0000   0.0000   0.2803
  13.500   1.6160   0.03975   0.03346  -0.0827  0.0440  1.0001  -4.9514   0.0000   0.0000   0.0000   0.2787
  13.750   1.6213   0.04162   0.03535  -0.0814  0.0409  1.0001  -5.0804   0.0000   0.0000   0.0000   0.2773
  14.000   1.6275   0.04345   0.03722  -0.0803  0.0382  1.0001  -5.2139   0.0000   0.0000   0.0000   0.2758
  14.250   1.6316   0.04551   0.03930  -0.0791  0.0358  1.0001  -5.3392   0.0000   0.0000   0.0000   0.2744
  14.500   1.6373   0.04746   0.04130  -0.0781  0.0336  1.0001  -5.4727   0.0000   0.0000   0.0000   0.2731
  14.750   1.6404   0.04967   0.04354  -0.0770  0.0317  1.0001  -5.5950   0.0000   0.0000   0.0000   0.2718
  15.000   1.6454   0.05174   0.04567  -0.0761  0.0300  1.0001  -5.7326   0.0000   0.0000   0.0000   0.2705
  15.250   1.6470   0.05421   0.04818  -0.0751  0.0285  1.0001  -5.8570   0.0000   0.0000   0.0000   0.2693
  15.500   1.6514   0.05643   0.05047  -0.0743  0.0272  1.0001  -5.9960   0.0000   0.0000   0.0000   0.2682
  15.750   1.6543   0.05885   0.05294  -0.0736  0.0260  1.0001  -6.1288   0.0000   0.0000   0.0000   0.2670
  16.000   1.6535   0.06170   0.05583  -0.0728  0.0249  1.0001  -6.2427   0.0000   0.0000   0.0000   0.2660
  16.250   1.6563   0.06418   0.05840  -0.0722  0.0239  1.0001  -6.3752   0.0000   0.0000   0.0000   0.2650
  16.500   1.6585   0.06677   0.06106  -0.0716  0.0230  1.0001  -6.5062   0.0000   0.0000   0.0000   0.2640
  16.750   1.6581   0.06970   0.06404  -0.0711  0.0221  1.0001  -6.6242   0.0000   0.0000   0.0000   0.2631
  17.000   1.6530   0.07327   0.06768  -0.0707  0.0213  1.0001  -6.7138   0.0000   0.0000   0.0000   0.2623
  17.250   1.6551   0.07600   0.07050  -0.0704  0.0208  1.0001  -6.8444   0.0000   0.0000   0.0000   0.2615
  17.500   1.6551   0.07902   0.07360  -0.0702  0.0201  1.0001  -6.9635   0.0000   0.0000   0.0000   0.2608
  17.750   1.6534   0.08226   0.07691  -0.0700  0.0196  1.0001  -7.0769   0.0000   0.0000   0.0000   0.2601
  18.000   1.6496   0.08581   0.08054  -0.0700  0.0190  1.0001  -7.1824   0.0000   0.0000   0.0000   0.2595
  18.250   1.6424   0.08991   0.08470  -0.0701  0.0185  1.0001  -7.2642   0.0000   0.0000   0.0000   0.2592
  18.500   1.6361   0.09395   0.08883  -0.0704  0.0181  1.0001  -7.3493   0.0000   0.0000   0.0000   0.2588
  18.750   1.6344   0.09738   0.09236  -0.0707  0.0177  1.0001  -7.4648   0.0000   0.0000   0.0000   0.2584
  19.000   1.6313   0.10103   0.09611  -0.0711  0.0173  1.0001  -7.5712   0.0000   0.0000   0.0000   0.2581
  19.250   1.6273   0.10481   0.09997  -0.0716  0.0169  1.0001  -7.6709   0.0000   0.0000   0.0000   0.2579
  19.500   1.6222   0.10880   0.10404  -0.0723  0.0165  1.0001  -7.7627   0.0000   0.0000   0.0000   0.2578
  19.750   1.6153   0.11309   0.10841  -0.0732  0.0161  1.0001  -7.8407   0.0000   0.0000   0.0000   0.2579
  20.000   1.6061   0.11780   0.11320  -0.0743  0.0158  1.0001  -7.8981   0.0000   0.0000   0.0000   0.2581


