xflr5 v6.61

 Calculated polar for: QX0026 thickness=13.65

 1 1 Reynolds number fixed          Mach number fixed         

 xtrf =   1.000 (top)        1.000 (bottom)
 Mach =   0.000     Re =     0.260 e 6     Ncrit =   9.000

  alpha     CL        CD       CDp       Cm    Top Xtr Bot Xtr   Cpmin    Chinge    XCp    
 ------- -------- --------- --------- -------- ------- ------- -------- --------- ---------
  -8.500  -0.1373   0.07716   0.07362  -0.0965  0.8658  0.0577  -1.8732   0.0000   0.0000   0.0000  -0.4934
  -8.250  -0.1261   0.07505   0.07151  -0.0968  0.8611  0.0587  -1.8106   0.0000   0.0000   0.0000  -0.5607
  -8.000  -0.1211   0.07172   0.06816  -0.0993  0.8568  0.0607  -1.8253   0.0000   0.0000   0.0000  -0.6131
  -7.250  -0.1590   0.03170   0.02652  -0.1365  0.8399  0.0434  -3.2654   0.0000   0.0000   0.0000  -0.6416
  -7.000  -0.1433   0.02745   0.02163  -0.1370  0.8357  0.0430  -3.3193   0.0000   0.0000   0.0000  -0.7425
  -6.750  -0.1216   0.02502   0.01873  -0.1370  0.8322  0.0435  -3.2638   0.0000   0.0000   0.0000  -0.9183
  -6.500  -0.0976   0.02316   0.01643  -0.1369  0.8293  0.0445  -3.1833   0.0000   0.0000   0.0000  -1.2025
  -6.250  -0.0733   0.02179   0.01469  -0.1368  0.8252  0.0462  -3.0969   0.0000   0.0000   0.0000  -1.6804
  -6.000  -0.0469   0.02103   0.01393  -0.1369  0.8223  0.0479  -2.9386   0.0000   0.0000   0.0000  -2.7621
  -5.750  -0.0206   0.02014   0.01284  -0.1368  0.8191  0.0497  -2.8173   0.0000   0.0000   0.0000  -6.5934
  -5.500   0.0057   0.01925   0.01169  -0.1366  0.8153  0.0514  -2.7037   0.0000   0.0000   0.0000  24.9515
  -5.250   0.0327   0.01857   0.01103  -0.1366  0.8126  0.0538  -2.5495   0.0000   0.0000   0.0000   4.5480
  -5.000   0.0598   0.01813   0.01040  -0.1365  0.8092  0.0568  -2.4145   0.0000   0.0000   0.0000   2.5964
  -4.750   0.0860   0.01746   0.00981  -0.1364  0.8056  0.0595  -2.2778   0.0000   0.0000   0.0000   1.8778
  -4.500   0.1139   0.01697   0.00918  -0.1364  0.8030  0.0630  -2.1571   0.0000   0.0000   0.0000   1.4765
  -4.250   0.1403   0.01653   0.00882  -0.1363  0.7995  0.0672  -2.0254   0.0000   0.0000   0.0000   1.2445
  -4.000   0.1670   0.01610   0.00841  -0.1363  0.7959  0.0719  -1.8992   0.0000   0.0000   0.0000   1.0836
  -3.750   0.1949   0.01568   0.00796  -0.1363  0.7933  0.0777  -1.7714   0.0000   0.0000   0.0000   0.9634
  -3.500   0.2215   0.01539   0.00771  -0.1362  0.7896  0.0853  -1.6473   0.0000   0.0000   0.0000   0.8766
  -3.250   0.2487   0.01508   0.00743  -0.1362  0.7861  0.0952  -1.5349   0.0000   0.0000   0.0000   0.8072
  -3.000   0.2770   0.01471   0.00710  -0.1363  0.7835  0.1099  -1.4197   0.0000   0.0000   0.0000   0.7501
  -2.750   0.3035   0.01442   0.00695  -0.1363  0.7796  0.1341  -1.3100   0.0000   0.0000   0.0000   0.7058
  -2.500   0.3308   0.01406   0.00679  -0.1364  0.7760  0.1815  -1.1979   0.0000   0.0000   0.0000   0.6679
  -2.250   0.3593   0.01374   0.00665  -0.1367  0.7735  0.2440  -1.0898   0.0000   0.0000   0.0000   0.6349
  -2.000   0.3855   0.01361   0.00671  -0.1367  0.7692  0.2989  -0.9877   0.0000   0.0000   0.0000   0.6081
  -1.750   0.4131   0.01341   0.00666  -0.1368  0.7658  0.3560  -0.8841   0.0000   0.0000   0.0000   0.5838
  -1.500   0.4417   0.01314   0.00657  -0.1369  0.7633  0.4222  -0.7836   0.0000   0.0000   0.0000   0.5621
  -1.250   0.4668   0.01301   0.00672  -0.1366  0.7586  0.5000  -0.7869   0.0000   0.0000   0.0000   0.5442
  -1.000   0.4932   0.01273   0.00673  -0.1363  0.7553  0.5957  -0.8045   0.0000   0.0000   0.0000   0.5272
  -0.750   0.5193   0.01244   0.00671  -0.1356  0.7529  0.7005  -0.8229   0.0000   0.0000   0.0000   0.5114
  -0.500   0.5397   0.01233   0.00692  -0.1338  0.7477  0.7907  -0.8377   0.0000   0.0000   0.0000   0.4978
  -0.250   0.5616   0.01207   0.00685  -0.1316  0.7446  0.8960  -0.8547   0.0000   0.0000   0.0000   0.4839
   0.000   0.6075   0.01195   0.00669  -0.1352  0.7414  1.0001  -0.8844   0.0000   0.0000   0.0000   0.4716
   0.250   0.6341   0.01207   0.00674  -0.1351  0.7367  1.0001  -0.9038   0.0000   0.0000   0.0000   0.4617
   0.500   0.6637   0.01207   0.00662  -0.1354  0.7337  1.0001  -0.9261   0.0000   0.0000   0.0000   0.4523
   0.750   0.6900   0.01221   0.00672  -0.1353  0.7289  1.0001  -0.9465   0.0000   0.0000   0.0000   0.4439
   1.000   0.7184   0.01225   0.00668  -0.1354  0.7249  1.0001  -0.9691   0.0000   0.0000   0.0000   0.4360
   1.250   0.7479   0.01226   0.00660  -0.1357  0.7217  1.0001  -0.9931   0.0000   0.0000   0.0000   0.4286
   1.500   0.7737   0.01239   0.00672  -0.1354  0.7163  1.0001  -1.0149   0.0000   0.0000   0.0000   0.4218
   1.750   0.8037   0.01237   0.00661  -0.1357  0.7129  1.0001  -1.0407   0.0000   0.0000   0.0000   0.4154
   2.000   0.8295   0.01251   0.00675  -0.1354  0.7074  1.0001  -1.0640   0.0000   0.0000   0.0000   0.4094
   2.250   0.8587   0.01250   0.00668  -0.1356  0.7034  1.0001  -1.0907   0.0000   0.0000   0.0000   0.4038
   2.500   0.8855   0.01259   0.00675  -0.1355  0.6983  1.0001  -1.1164   0.0000   0.0000   0.0000   0.3985
   2.750   0.9139   0.01260   0.00673  -0.1356  0.6936  1.0001  -1.1443   0.0000   0.0000   0.0000   0.3935
   3.000   0.9413   0.01265   0.00677  -0.1355  0.6885  1.0001  -1.1725   0.0000   0.0000   0.0000   0.3888
   3.250   0.9692   0.01267   0.00676  -0.1355  0.6832  1.0001  -1.2021   0.0000   0.0000   0.0000   0.3843
   3.500   0.9964   0.01272   0.00681  -0.1354  0.6777  1.0001  -1.2326   0.0000   0.0000   0.0000   0.3800
   3.750   1.0244   0.01272   0.00679  -0.1353  0.6722  1.0001  -1.2651   0.0000   0.0000   0.0000   0.3760
   4.000   1.0507   0.01279   0.00687  -0.1351  0.6658  1.0001  -1.2977   0.0000   0.0000   0.0000   0.3721
   4.250   1.0797   0.01275   0.00680  -0.1352  0.6605  1.0001  -1.3343   0.0000   0.0000   0.0000   0.3684
   4.500   1.1048   0.01283   0.00692  -0.1347  0.6530  1.0001  -1.3694   0.0000   0.0000   0.0000   0.3648
   4.750   1.1319   0.01286   0.00693  -0.1346  0.6464  1.0001  -1.4084   0.0000   0.0000   0.0000   0.3614
   5.000   1.1592   0.01286   0.00693  -0.1344  0.6394  1.0001  -1.4503   0.0000   0.0000   0.0000   0.3581
   5.250   1.1840   0.01294   0.00704  -0.1339  0.6310  1.0001  -1.4926   0.0000   0.0000   0.0000   0.3549
   5.500   1.2094   0.01300   0.00712  -0.1334  0.6226  1.0001  -1.5397   0.0000   0.0000   0.0000   0.3518
   5.750   1.2350   0.01305   0.00719  -0.1330  0.6140  1.0001  -1.5942   0.0000   0.0000   0.0000   0.3488
   6.000   1.2604   0.01312   0.00726  -0.1325  0.6047  1.0001  -1.6636   0.0000   0.0000   0.0000   0.3459
   6.250   1.2849   0.01322   0.00736  -0.1319  0.5947  1.0001  -1.7420   0.0000   0.0000   0.0000   0.3431
   6.500   1.3084   0.01335   0.00751  -0.1311  0.5835  1.0001  -1.8246   0.0000   0.0000   0.0000   0.3403
   6.750   1.3309   0.01351   0.00770  -0.1302  0.5714  1.0001  -1.9108   0.0000   0.0000   0.0000   0.3375
   7.000   1.3527   0.01370   0.00790  -0.1291  0.5582  1.0001  -2.0023   0.0000   0.0000   0.0000   0.3348
   7.250   1.3740   0.01392   0.00811  -0.1280  0.5441  1.0001  -2.1006   0.0000   0.0000   0.0000   0.3321
   7.500   1.3940   0.01418   0.00835  -0.1266  0.5289  1.0001  -2.2038   0.0000   0.0000   0.0000   0.3294
   7.750   1.4121   0.01451   0.00866  -0.1250  0.5120  1.0001  -2.3078   0.0000   0.0000   0.0000   0.3266
   8.000   1.4289   0.01490   0.00901  -0.1231  0.4946  1.0001  -2.4146   0.0000   0.0000   0.0000   0.3239
   8.250   1.4440   0.01536   0.00942  -0.1210  0.4769  1.0001  -2.5210   0.0000   0.0000   0.0000   0.3212
   8.500   1.4569   0.01587   0.00990  -0.1186  0.4592  1.0001  -2.6230   0.0000   0.0000   0.0000   0.3183
   8.750   1.4671   0.01646   0.01043  -0.1157  0.4423  1.0001  -2.7229   0.0000   0.0000   0.0000   0.3154
   9.000   1.4768   0.01712   0.01108  -0.1129  0.4248  1.0001  -2.8250   0.0000   0.0000   0.0000   0.3126
   9.250   1.4856   0.01789   0.01182  -0.1101  0.4073  1.0001  -2.9257   0.0000   0.0000   0.0000   0.3099
   9.500   1.4930   0.01879   0.01266  -0.1074  0.3898  1.0001  -3.0237   0.0000   0.0000   0.0000   0.3072
   9.750   1.5002   0.01977   0.01362  -0.1047  0.3714  1.0001  -3.1214   0.0000   0.0000   0.0000   0.3047
  10.000   1.5063   0.02088   0.01470  -0.1021  0.3530  1.0001  -3.2199   0.0000   0.0000   0.0000   0.3022
  10.250   1.5113   0.02214   0.01591  -0.0996  0.3343  1.0001  -3.3187   0.0000   0.0000   0.0000   0.2998
  10.500   1.5154   0.02354   0.01726  -0.0971  0.3153  1.0001  -3.4152   0.0000   0.0000   0.0000   0.2976
  10.750   1.5186   0.02506   0.01873  -0.0947  0.2959  1.0001  -3.5092   0.0000   0.0000   0.0000   0.2954
  11.250   1.5228   0.02847   0.02202  -0.0901  0.2565  1.0001  -3.6917   0.0000   0.0000   0.0000   0.2912
  11.500   1.5238   0.03035   0.02384  -0.0879  0.2368  1.0001  -3.7796   0.0000   0.0000   0.0000   0.2892
  11.750   1.5240   0.03236   0.02579  -0.0857  0.2170  1.0001  -3.8683   0.0000   0.0000   0.0000   0.2873
  12.000   1.5232   0.03448   0.02785  -0.0836  0.1978  1.0001  -3.9562   0.0000   0.0000   0.0000   0.2854
  12.250   1.5217   0.03674   0.03004  -0.0816  0.1790  1.0001  -4.0409   0.0000   0.0000   0.0000   0.2836
  12.500   1.5193   0.03915   0.03238  -0.0796  0.1610  1.0001  -4.1225   0.0000   0.0000   0.0000   0.2819
  12.750   1.5164   0.04169   0.03485  -0.0778  0.1441  1.0001  -4.2013   0.0000   0.0000   0.0000   0.2803
  13.000   1.5136   0.04433   0.03742  -0.0761  0.1285  1.0001  -4.2799   0.0000   0.0000   0.0000   0.2788
  13.250   1.5105   0.04708   0.04012  -0.0745  0.1148  1.0001  -4.3566   0.0000   0.0000   0.0000   0.2773
  13.500   1.5079   0.04983   0.04285  -0.0731  0.1030  1.0001  -4.4345   0.0000   0.0000   0.0000   0.2759
  13.750   1.5045   0.05277   0.04576  -0.0717  0.0938  1.0001  -4.5081   0.0000   0.0000   0.0000   0.2746
  14.000   1.5023   0.05565   0.04865  -0.0706  0.0857  1.0001  -4.5923   0.0000   0.0000   0.0000   0.2734
  14.250   1.4998   0.05864   0.05165  -0.0696  0.0792  1.0001  -4.6743   0.0000   0.0000   0.0000   0.2722
  14.500   1.4971   0.06169   0.05472  -0.0686  0.0737  1.0001  -4.7552   0.0000   0.0000   0.0000   0.2711
  14.750   1.4940   0.06486   0.05791  -0.0678  0.0692  1.0001  -4.8337   0.0000   0.0000   0.0000   0.2701
  15.000   1.4912   0.06806   0.06114  -0.0671  0.0652  1.0001  -4.9136   0.0000   0.0000   0.0000   0.2692
  15.250   1.4903   0.07110   0.06425  -0.0665  0.0613  1.0001  -4.9998   0.0000   0.0000   0.0000   0.2683
  15.500   1.4873   0.07442   0.06760  -0.0660  0.0584  1.0001  -5.0763   0.0000   0.0000   0.0000   0.2675
  15.750   1.4859   0.07758   0.07082  -0.0656  0.0555  1.0001  -5.1600   0.0000   0.0000   0.0000   0.2667
  16.000   1.4836   0.08084   0.07414  -0.0652  0.0530  1.0001  -5.2382   0.0000   0.0000   0.0000   0.2659
  16.250   1.4826   0.08403   0.07738  -0.0650  0.0506  1.0001  -5.3299   0.0000   0.0000   0.0000   0.2653
  16.500   1.4809   0.08728   0.08068  -0.0648  0.0485  1.0001  -5.4181   0.0000   0.0000   0.0000   0.2646
  16.750   1.4808   0.09041   0.08390  -0.0648  0.0464  1.0001  -5.5137   0.0000   0.0000   0.0000   0.2640
  17.000   1.4798   0.09347   0.08692  -0.0645  0.0448  1.0001  -5.6085   0.0000   0.0000   0.0000   0.2633
  17.250   1.4805   0.09658   0.09019  -0.0646  0.0430  1.0001  -5.7022   0.0000   0.0000   0.0000   0.2627
  17.500   1.4810   0.09956   0.09321  -0.0647  0.0414  1.0001  -5.8019   0.0000   0.0000   0.0000   0.2622
  17.750   1.4830   0.10216   0.09579  -0.0644  0.0401  1.0001  -5.9105   0.0000   0.0000   0.0000   0.2614
  18.000   1.4833   0.10538   0.09918  -0.0648  0.0386  1.0001  -6.0008   0.0000   0.0000   0.0000   0.2610
  18.250   1.4848   0.10831   0.10216  -0.0650  0.0373  1.0001  -6.1050   0.0000   0.0000   0.0000   0.2605
  18.500   1.4906   0.11017   0.10393  -0.0647  0.0360  1.0001  -6.2404   0.0000   0.0000   0.0000   0.2595
  18.750   1.4892   0.11380   0.10777  -0.0654  0.0350  1.0001  -6.3188   0.0000   0.0000   0.0000   0.2594
  19.000   1.4905   0.11684   0.11092  -0.0659  0.0339  1.0001  -6.4250   0.0000   0.0000   0.0000   0.2591
  19.250   1.4942   0.11932   0.11343  -0.0662  0.0329  1.0001  -6.5527   0.0000   0.0000   0.0000   0.2585
  19.500   1.5033   0.12054   0.11459  -0.0657  0.0319  1.0001  -6.7179   0.0000   0.0000   0.0000   0.2573
  19.750   1.5002   0.12448   0.11875  -0.0669  0.0312  1.0001  -6.7862   0.0000   0.0000   0.0000   0.2575
  20.000   1.4988   0.12807   0.12250  -0.0680  0.0303  1.0001  -6.8690   0.0000   0.0000   0.0000   0.2576


