xflr5 v6.61

 Calculated polar for: QX0026 thickness=13.65

 1 1 Reynolds number fixed          Mach number fixed         

 xtrf =   1.000 (top)        1.000 (bottom)
 Mach =   0.000     Re =     0.980 e 6     Ncrit =   9.000

  alpha     CL        CD       CDp       Cm    Top Xtr Bot Xtr   Cpmin    Chinge    XCp    
 ------- -------- --------- --------- -------- ------- ------- -------- --------- ---------
 -10.000  -0.4970   0.01767   0.01270  -0.1287  0.7919  0.0178  -6.9258   0.0000   0.0000   0.0000  -0.0272
  -9.750  -0.4712   0.01709   0.01205  -0.1288  0.7884  0.0182  -6.6770   0.0000   0.0000   0.0000  -0.0419
  -9.500  -0.4451   0.01654   0.01140  -0.1289  0.7853  0.0186  -6.4325   0.0000   0.0000   0.0000  -0.0584
  -9.250  -0.4188   0.01606   0.01080  -0.1290  0.7825  0.0191  -6.1893   0.0000   0.0000   0.0000  -0.0772
  -9.000  -0.3918   0.01561   0.01027  -0.1291  0.7793  0.0195  -5.9467   0.0000   0.0000   0.0000  -0.0991
  -8.750  -0.3654   0.01503   0.00958  -0.1292  0.7763  0.0199  -5.7185   0.0000   0.0000   0.0000  -0.1237
  -8.500  -0.3405   0.01413   0.00858  -0.1293  0.7735  0.0205  -5.5087   0.0000   0.0000   0.0000  -0.1503
  -8.250  -0.3133   0.01373   0.00814  -0.1294  0.7706  0.0211  -5.2685   0.0000   0.0000   0.0000  -0.1846
  -8.000  -0.2857   0.01336   0.00773  -0.1296  0.7677  0.0216  -5.0320   0.0000   0.0000   0.0000  -0.2259
  -7.750  -0.2582   0.01300   0.00730  -0.1297  0.7650  0.0223  -4.8023   0.0000   0.0000   0.0000  -0.2761
  -7.500  -0.2304   0.01268   0.00690  -0.1298  0.7624  0.0229  -4.5769   0.0000   0.0000   0.0000  -0.3388
  -7.250  -0.2024   0.01237   0.00653  -0.1300  0.7594  0.0234  -4.3574   0.0000   0.0000   0.0000  -0.4197
  -7.000  -0.1756   0.01178   0.00590  -0.1301  0.7567  0.0244  -4.1663   0.0000   0.0000   0.0000  -0.5214
  -6.750  -0.1474   0.01154   0.00563  -0.1303  0.7542  0.0253  -3.9579   0.0000   0.0000   0.0000  -0.6682
  -6.500  -0.1191   0.01130   0.00535  -0.1304  0.7515  0.0263  -3.7581   0.0000   0.0000   0.0000  -0.8856
  -6.250  -0.0906   0.01108   0.00507  -0.1306  0.7486  0.0271  -3.5627   0.0000   0.0000   0.0000  -1.2415
  -6.000  -0.0630   0.01063   0.00460  -0.1307  0.7460  0.0283  -3.3791   0.0000   0.0000   0.0000  -1.8961
  -5.750  -0.0345   0.01043   0.00436  -0.1309  0.7435  0.0295  -3.1864   0.0000   0.0000   0.0000  -3.6615
  -5.500  -0.0059   0.01024   0.00414  -0.1311  0.7408  0.0308  -2.9988   0.0000   0.0000   0.0000  -22.6150
  -5.250   0.0225   0.00995   0.00383  -0.1313  0.7380  0.0324  -2.8181   0.0000   0.0000   0.0000   6.2604
  -5.000   0.0511   0.00977   0.00364  -0.1315  0.7353  0.0342  -2.6422   0.0000   0.0000   0.0000   2.8920
  -4.750   0.0799   0.00965   0.00346  -0.1317  0.7328  0.0358  -2.4794   0.0000   0.0000   0.0000   1.9395
  -4.500   0.1084   0.00938   0.00321  -0.1319  0.7299  0.0383  -2.3219   0.0000   0.0000   0.0000   1.4954
  -4.250   0.1373   0.00925   0.00305  -0.1321  0.7269  0.0406  -2.1637   0.0000   0.0000   0.0000   1.2335
  -4.000   0.1660   0.00905   0.00285  -0.1323  0.7242  0.0439  -2.0099   0.0000   0.0000   0.0000   1.0637
  -3.750   0.1948   0.00890   0.00269  -0.1326  0.7215  0.0475  -1.8593   0.0000   0.0000   0.0000   0.9435
  -3.500   0.2236   0.00875   0.00255  -0.1328  0.7183  0.0517  -1.7163   0.0000   0.0000   0.0000   0.8540
  -3.250   0.2525   0.00860   0.00240  -0.1330  0.7153  0.0573  -1.5831   0.0000   0.0000   0.0000   0.7851
  -3.000   0.2813   0.00846   0.00227  -0.1332  0.7126  0.0651  -1.4527   0.0000   0.0000   0.0000   0.7304
  -2.500   0.3389   0.00814   0.00207  -0.1337  0.7063  0.0941  -1.2001   0.0000   0.0000   0.0000   0.6490
  -2.250   0.3676   0.00798   0.00198  -0.1340  0.7034  0.1202  -1.0864   0.0000   0.0000   0.0000   0.6179
  -2.000   0.3963   0.00782   0.00192  -0.1343  0.7004  0.1528  -0.9766   0.0000   0.0000   0.0000   0.5915
  -1.750   0.4251   0.00765   0.00187  -0.1346  0.6970  0.1898  -0.8692   0.0000   0.0000   0.0000   0.5685
  -1.250   0.4826   0.00741   0.00180  -0.1351  0.6908  0.2614  -0.8083   0.0000   0.0000   0.0000   0.5307
  -1.000   0.5113   0.00728   0.00179  -0.1354  0.6873  0.2992  -0.8268   0.0000   0.0000   0.0000   0.5150
  -0.750   0.5401   0.00716   0.00178  -0.1356  0.6838  0.3415  -0.8457   0.0000   0.0000   0.0000   0.5009
  -0.500   0.5687   0.00705   0.00177  -0.1359  0.6807  0.3911  -0.8651   0.0000   0.0000   0.0000   0.4883
  -0.250   0.5973   0.00689   0.00179  -0.1362  0.6769  0.4498  -0.8849   0.0000   0.0000   0.0000   0.4769
   0.000   0.6257   0.00672   0.00181  -0.1364  0.6732  0.5228  -0.9052   0.0000   0.0000   0.0000   0.4665
   0.250   0.6537   0.00655   0.00185  -0.1366  0.6698  0.6090  -0.9259   0.0000   0.0000   0.0000   0.4571
   0.500   0.6817   0.00639   0.00191  -0.1366  0.6657  0.6886  -0.9471   0.0000   0.0000   0.0000   0.4482
   0.750   0.7094   0.00628   0.00195  -0.1366  0.6618  0.7483  -0.9687   0.0000   0.0000   0.0000   0.4400
   1.000   0.7361   0.00616   0.00200  -0.1363  0.6579  0.8137  -0.9903   0.0000   0.0000   0.0000   0.4323
   1.250   0.7591   0.00598   0.00206  -0.1350  0.6535  0.9031  -1.0106   0.0000   0.0000   0.0000   0.4247
   1.500   0.7940   0.00590   0.00203  -0.1364  0.6494  1.0001  -1.0382   0.0000   0.0000   0.0000   0.4182
   1.750   0.8225   0.00594   0.00206  -0.1366  0.6445  1.0001  -1.0627   0.0000   0.0000   0.0000   0.4122
   2.000   0.8507   0.00601   0.00209  -0.1367  0.6397  1.0001  -1.0879   0.0000   0.0000   0.0000   0.4065
   2.250   0.8791   0.00606   0.00213  -0.1369  0.6346  1.0001  -1.1139   0.0000   0.0000   0.0000   0.4012
   2.500   0.9071   0.00614   0.00217  -0.1370  0.6292  1.0001  -1.1406   0.0000   0.0000   0.0000   0.3962
   2.750   0.9354   0.00620   0.00222  -0.1371  0.6235  1.0001  -1.1684   0.0000   0.0000   0.0000   0.3915
   3.000   0.9631   0.00629   0.00227  -0.1371  0.6176  1.0001  -1.1970   0.0000   0.0000   0.0000   0.3870
   3.250   0.9912   0.00636   0.00233  -0.1373  0.6110  1.0001  -1.2269   0.0000   0.0000   0.0000   0.3828
   3.500   1.0188   0.00645   0.00240  -0.1373  0.6043  1.0001  -1.2579   0.0000   0.0000   0.0000   0.3787
   3.750   1.0462   0.00655   0.00248  -0.1373  0.5968  1.0001  -1.2901   0.0000   0.0000   0.0000   0.3749
   4.000   1.0737   0.00665   0.00257  -0.1373  0.5887  1.0001  -1.3242   0.0000   0.0000   0.0000   0.3712
   4.250   1.1008   0.00677   0.00266  -0.1373  0.5800  1.0001  -1.3596   0.0000   0.0000   0.0000   0.3677
   4.500   1.1276   0.00690   0.00276  -0.1372  0.5705  1.0001  -1.3968   0.0000   0.0000   0.0000   0.3643
   4.750   1.1541   0.00704   0.00288  -0.1370  0.5599  1.0001  -1.4360   0.0000   0.0000   0.0000   0.3611
   5.000   1.1803   0.00720   0.00301  -0.1368  0.5481  1.0001  -1.4776   0.0000   0.0000   0.0000   0.3579
   5.250   1.2059   0.00739   0.00315  -0.1365  0.5349  1.0001  -1.5220   0.0000   0.0000   0.0000   0.3549
   5.500   1.2308   0.00762   0.00332  -0.1361  0.5205  1.0001  -1.5706   0.0000   0.0000   0.0000   0.3519
   5.750   1.2554   0.00786   0.00351  -0.1357  0.5047  1.0001  -1.6287   0.0000   0.0000   0.0000   0.3490
   6.000   1.2788   0.00815   0.00374  -0.1350  0.4877  1.0001  -1.7023   0.0000   0.0000   0.0000   0.3462
   6.250   1.3020   0.00846   0.00397  -0.1343  0.4693  1.0001  -1.7819   0.0000   0.0000   0.0000   0.3434
   6.500   1.3241   0.00882   0.00425  -0.1334  0.4499  1.0001  -1.8650   0.0000   0.0000   0.0000   0.3407
   6.750   1.3454   0.00920   0.00455  -0.1325  0.4298  1.0001  -1.9517   0.0000   0.0000   0.0000   0.3380
   7.000   1.3661   0.00961   0.00486  -0.1314  0.4104  1.0001  -2.0436   0.0000   0.0000   0.0000   0.3354
   7.250   1.3867   0.01000   0.00519  -0.1303  0.3916  1.0001  -2.1441   0.0000   0.0000   0.0000   0.3328
   7.500   1.4065   0.01042   0.00553  -0.1291  0.3732  1.0001  -2.2507   0.0000   0.0000   0.0000   0.3302
   7.750   1.4249   0.01088   0.00591  -0.1276  0.3546  1.0001  -2.3594   0.0000   0.0000   0.0000   0.3276
   8.000   1.4406   0.01137   0.00632  -0.1257  0.3357  1.0001  -2.4665   0.0000   0.0000   0.0000   0.3249
   8.250   1.4546   0.01192   0.00679  -0.1234  0.3164  1.0001  -2.5707   0.0000   0.0000   0.0000   0.3221
   8.500   1.4679   0.01254   0.00732  -0.1212  0.2964  1.0001  -2.6780   0.0000   0.0000   0.0000   0.3195
   8.750   1.4801   0.01324   0.00793  -0.1189  0.2762  1.0001  -2.7868   0.0000   0.0000   0.0000   0.3168
   9.000   1.4916   0.01402   0.00861  -0.1166  0.2557  1.0001  -2.8950   0.0000   0.0000   0.0000   0.3143
   9.250   1.5023   0.01488   0.00938  -0.1144  0.2356  1.0001  -3.0023   0.0000   0.0000   0.0000   0.3118
   9.500   1.5124   0.01583   0.01024  -0.1122  0.2159  1.0001  -3.1086   0.0000   0.0000   0.0000   0.3094
   9.750   1.5218   0.01687   0.01120  -0.1100  0.1966  1.0001  -3.2191   0.0000   0.0000   0.0000   0.3071
  10.000   1.5303   0.01802   0.01225  -0.1078  0.1778  1.0001  -3.3298   0.0000   0.0000   0.0000   0.3048
  10.250   1.5385   0.01923   0.01337  -0.1057  0.1603  1.0001  -3.4405   0.0000   0.0000   0.0000   0.3026
  10.750   1.5538   0.02183   0.01582  -0.1017  0.1283  1.0001  -3.6615   0.0000   0.0000   0.0000   0.2985
  11.000   1.5606   0.02323   0.01715  -0.0997  0.1137  1.0001  -3.7707   0.0000   0.0000   0.0000   0.2964
  11.250   1.5672   0.02467   0.01854  -0.0978  0.1006  1.0001  -3.8833   0.0000   0.0000   0.0000   0.2945
  11.500   1.5743   0.02611   0.01993  -0.0960  0.0893  1.0001  -4.0026   0.0000   0.0000   0.0000   0.2926
  11.750   1.5811   0.02758   0.02136  -0.0942  0.0798  1.0001  -4.1223   0.0000   0.0000   0.0000   0.2907
  12.000   1.5876   0.02910   0.02285  -0.0925  0.0713  1.0001  -4.2415   0.0000   0.0000   0.0000   0.2889
  12.250   1.5940   0.03065   0.02438  -0.0909  0.0641  1.0001  -4.3619   0.0000   0.0000   0.0000   0.2871
  12.500   1.6006   0.03219   0.02593  -0.0893  0.0578  1.0001  -4.4839   0.0000   0.0000   0.0000   0.2854
  12.750   1.6072   0.03378   0.02752  -0.0877  0.0526  1.0001  -4.6065   0.0000   0.0000   0.0000   0.2837
  13.000   1.6137   0.03542   0.02916  -0.0863  0.0483  1.0001  -4.7349   0.0000   0.0000   0.0000   0.2821
  13.250   1.6199   0.03713   0.03088  -0.0849  0.0445  1.0001  -4.8661   0.0000   0.0000   0.0000   0.2805
  13.500   1.6265   0.03882   0.03259  -0.0836  0.0412  1.0001  -5.0007   0.0000   0.0000   0.0000   0.2790
  13.750   1.6329   0.04056   0.03437  -0.0824  0.0384  1.0001  -5.1354   0.0000   0.0000   0.0000   0.2775
  14.000   1.6377   0.04249   0.03632  -0.0811  0.0358  1.0001  -5.2640   0.0000   0.0000   0.0000   0.2760
  14.250   1.6442   0.04431   0.03818  -0.0800  0.0335  1.0001  -5.4012   0.0000   0.0000   0.0000   0.2746
  14.500   1.6488   0.04635   0.04025  -0.0789  0.0316  1.0001  -5.5304   0.0000   0.0000   0.0000   0.2733
  14.750   1.6545   0.04830   0.04225  -0.0779  0.0298  1.0001  -5.6659   0.0000   0.0000   0.0000   0.2719
  15.000   1.6566   0.05062   0.04460  -0.0768  0.0282  1.0001  -5.7936   0.0000   0.0000   0.0000   0.2707
  15.250   1.6626   0.05261   0.04665  -0.0760  0.0269  1.0001  -5.9414   0.0000   0.0000   0.0000   0.2694
  15.500   1.6657   0.05493   0.04901  -0.0751  0.0256  1.0001  -6.0762   0.0000   0.0000   0.0000   0.2682
  15.750   1.6669   0.05751   0.05164  -0.0742  0.0245  1.0001  -6.2004   0.0000   0.0000   0.0000   0.2671
  16.000   1.6714   0.05975   0.05396  -0.0735  0.0235  1.0001  -6.3440   0.0000   0.0000   0.0000   0.2660
  16.250   1.6735   0.06228   0.05655  -0.0729  0.0225  1.0001  -6.4757   0.0000   0.0000   0.0000   0.2649
  16.500   1.6720   0.06524   0.05955  -0.0722  0.0216  1.0001  -6.5883   0.0000   0.0000   0.0000   0.2640
  16.750   1.6735   0.06794   0.06232  -0.0716  0.0209  1.0001  -6.7162   0.0000   0.0000   0.0000   0.2630
  17.000   1.6753   0.07062   0.06508  -0.0712  0.0202  1.0001  -6.8473   0.0000   0.0000   0.0000   0.2621
  17.250   1.6754   0.07355   0.06808  -0.0708  0.0196  1.0001  -6.9694   0.0000   0.0000   0.0000   0.2613
  17.500   1.6733   0.07678   0.07138  -0.0705  0.0190  1.0001  -7.0795   0.0000   0.0000   0.0000   0.2605
  17.750   1.6672   0.08056   0.07523  -0.0703  0.0184  1.0001  -7.1705   0.0000   0.0000   0.0000   0.2599
  18.000   1.6655   0.08382   0.07858  -0.0702  0.0180  1.0001  -7.2891   0.0000   0.0000   0.0000   0.2593
  18.250   1.6646   0.08701   0.08186  -0.0702  0.0175  1.0001  -7.4136   0.0000   0.0000   0.0000   0.2586
  18.500   1.6627   0.09038   0.08531  -0.0703  0.0171  1.0001  -7.5321   0.0000   0.0000   0.0000   0.2581
  18.750   1.6597   0.09394   0.08894  -0.0705  0.0166  1.0001  -7.6433   0.0000   0.0000   0.0000   0.2577
  19.000   1.6547   0.09780   0.09287  -0.0709  0.0162  1.0001  -7.7414   0.0000   0.0000   0.0000   0.2574
  19.250   1.6469   0.10211   0.09727  -0.0714  0.0158  1.0001  -7.8175   0.0000   0.0000   0.0000   0.2573
  19.500   1.6347   0.10706   0.10231  -0.0722  0.0154  1.0001  -7.8598   0.0000   0.0000   0.0000   0.2574
  19.750   1.6313   0.11080   0.10614  -0.0729  0.0152  1.0001  -7.9636   0.0000   0.0000   0.0000   0.2572
  20.000   1.6272   0.11469   0.11013  -0.0737  0.0149  1.0001  -8.0605   0.0000   0.0000   0.0000   0.2572


