xflr5 v6.61

 Calculated polar for: QX0026 thickness=13.65

 1 1 Reynolds number fixed          Mach number fixed         

 xtrf =   1.000 (top)        1.000 (bottom)
 Mach =   0.000     Re =     0.760 e 6     Ncrit =   9.000

  alpha     CL        CD       CDp       Cm    Top Xtr Bot Xtr   Cpmin    Chinge    XCp    
 ------- -------- --------- --------- -------- ------- ------- -------- --------- ---------
 -10.000  -0.4809   0.02161   0.01678  -0.1293  0.8051  0.0193  -6.6271   0.0000   0.0000   0.0000  -0.0375
  -9.750  -0.4572   0.02069   0.01564  -0.1294  0.8021  0.0197  -6.4242   0.0000   0.0000   0.0000  -0.0519
  -9.500  -0.4360   0.01903   0.01380  -0.1296  0.7985  0.0202  -6.2581   0.0000   0.0000   0.0000  -0.0662
  -9.250  -0.4109   0.01834   0.01306  -0.1297  0.7951  0.0207  -6.0206   0.0000   0.0000   0.0000  -0.0850
  -8.750  -0.3589   0.01721   0.01175  -0.1300  0.7891  0.0217  -5.5576   0.0000   0.0000   0.0000  -0.1324
  -8.500  -0.3328   0.01656   0.01098  -0.1300  0.7859  0.0223  -5.3426   0.0000   0.0000   0.0000  -0.1618
  -8.250  -0.3063   0.01597   0.01025  -0.1301  0.7832  0.0228  -5.1299   0.0000   0.0000   0.0000  -0.1966
  -8.000  -0.2791   0.01552   0.00968  -0.1302  0.7802  0.0233  -4.9124   0.0000   0.0000   0.0000  -0.2394
  -7.750  -0.2540   0.01451   0.00860  -0.1303  0.7771  0.0241  -4.7201   0.0000   0.0000   0.0000  -0.2868
  -7.500  -0.2268   0.01410   0.00815  -0.1304  0.7744  0.0248  -4.4962   0.0000   0.0000   0.0000  -0.3506
  -7.250  -0.1992   0.01375   0.00774  -0.1305  0.7718  0.0256  -4.2762   0.0000   0.0000   0.0000  -0.4331
  -7.000  -0.1715   0.01341   0.00733  -0.1306  0.7687  0.0265  -4.0747   0.0000   0.0000   0.0000  -0.5431
  -6.750  -0.1437   0.01304   0.00687  -0.1308  0.7659  0.0273  -3.8865   0.0000   0.0000   0.0000  -0.6955
  -6.500  -0.1167   0.01248   0.00627  -0.1309  0.7635  0.0284  -3.7034   0.0000   0.0000   0.0000  -0.9128
  -6.250  -0.0887   0.01218   0.00595  -0.1310  0.7606  0.0295  -3.5112   0.0000   0.0000   0.0000  -1.2787
  -6.000  -0.0606   0.01189   0.00562  -0.1312  0.7576  0.0307  -3.3257   0.0000   0.0000   0.0000  -1.9880
  -5.750  -0.0326   0.01153   0.00519  -0.1313  0.7550  0.0319  -3.1479   0.0000   0.0000   0.0000  -3.9006
  -5.500  -0.0045   0.01125   0.00489  -0.1315  0.7526  0.0334  -2.9629   0.0000   0.0000   0.0000  -29.7402
  -5.250   0.0239   0.01103   0.00466  -0.1316  0.7496  0.0352  -2.7821   0.0000   0.0000   0.0000   5.9072
  -5.000   0.0521   0.01070   0.00430  -0.1318  0.7467  0.0369  -2.6160   0.0000   0.0000   0.0000   2.8489
  -4.750   0.0806   0.01050   0.00406  -0.1320  0.7442  0.0390  -2.4556   0.0000   0.0000   0.0000   1.9289
  -4.500   0.1092   0.01029   0.00381  -0.1322  0.7416  0.0412  -2.3017   0.0000   0.0000   0.0000   1.4895
  -4.250   0.1377   0.01007   0.00362  -0.1324  0.7385  0.0442  -2.1463   0.0000   0.0000   0.0000   1.2330
  -4.000   0.1662   0.00986   0.00338  -0.1326  0.7356  0.0475  -1.9962   0.0000   0.0000   0.0000   1.0639
  -3.750   0.1951   0.00973   0.00321  -0.1328  0.7330  0.0512  -1.8469   0.0000   0.0000   0.0000   0.9435
  -3.500   0.2237   0.00952   0.00303  -0.1330  0.7299  0.0562  -1.7067   0.0000   0.0000   0.0000   0.8550
  -3.250   0.2523   0.00935   0.00287  -0.1332  0.7268  0.0625  -1.5759   0.0000   0.0000   0.0000   0.7863
  -3.000   0.2811   0.00917   0.00271  -0.1334  0.7240  0.0711  -1.4476   0.0000   0.0000   0.0000   0.7315
  -2.750   0.3098   0.00900   0.00258  -0.1337  0.7211  0.0845  -1.3216   0.0000   0.0000   0.0000   0.6870
  -2.500   0.3383   0.00880   0.00248  -0.1339  0.7178  0.1067  -1.1983   0.0000   0.0000   0.0000   0.6502
  -2.250   0.3670   0.00860   0.00238  -0.1341  0.7147  0.1386  -1.0857   0.0000   0.0000   0.0000   0.6191
  -2.000   0.3957   0.00844   0.00231  -0.1344  0.7120  0.1778  -0.9762   0.0000   0.0000   0.0000   0.5925
  -1.750   0.4242   0.00827   0.00227  -0.1347  0.7085  0.2166  -0.8695   0.0000   0.0000   0.0000   0.5695
  -1.500   0.4528   0.00812   0.00223  -0.1349  0.7052  0.2550  -0.7888   0.0000   0.0000   0.0000   0.5494
  -1.250   0.4816   0.00801   0.00219  -0.1352  0.7023  0.2942  -0.8069   0.0000   0.0000   0.0000   0.5316
  -1.000   0.5101   0.00786   0.00219  -0.1355  0.6989  0.3379  -0.8253   0.0000   0.0000   0.0000   0.5158
  -0.750   0.5386   0.00771   0.00218  -0.1357  0.6953  0.3886  -0.8441   0.0000   0.0000   0.0000   0.5018
  -0.500   0.5671   0.00756   0.00217  -0.1359  0.6922  0.4491  -0.8634   0.0000   0.0000   0.0000   0.4891
  -0.250   0.5953   0.00739   0.00220  -0.1361  0.6886  0.5230  -0.8831   0.0000   0.0000   0.0000   0.4777
   0.000   0.6232   0.00718   0.00224  -0.1362  0.6848  0.6099  -0.9031   0.0000   0.0000   0.0000   0.4672
   0.250   0.6507   0.00702   0.00228  -0.1362  0.6815  0.6963  -0.9236   0.0000   0.0000   0.0000   0.4575
   0.500   0.6778   0.00688   0.00233  -0.1360  0.6776  0.7605  -0.9443   0.0000   0.0000   0.0000   0.4485
   0.750   0.7034   0.00672   0.00238  -0.1354  0.6736  0.8312  -0.9648   0.0000   0.0000   0.0000   0.4400
   1.000   0.7253   0.00655   0.00240  -0.1337  0.6702  0.9293  -0.9839   0.0000   0.0000   0.0000   0.4315
   1.250   0.7640   0.00650   0.00238  -0.1360  0.6656  1.0001  -1.0128   0.0000   0.0000   0.0000   0.4249
   1.500   0.7923   0.00655   0.00238  -0.1362  0.6614  1.0001  -1.0365   0.0000   0.0000   0.0000   0.4183
   1.750   0.8206   0.00661   0.00241  -0.1363  0.6570  1.0001  -1.0609   0.0000   0.0000   0.0000   0.4123
   2.000   0.8487   0.00666   0.00244  -0.1364  0.6521  1.0001  -1.0860   0.0000   0.0000   0.0000   0.4066
   2.250   0.8769   0.00673   0.00247  -0.1365  0.6476  1.0001  -1.1119   0.0000   0.0000   0.0000   0.4012
   2.500   0.9049   0.00678   0.00252  -0.1366  0.6421  1.0001  -1.1386   0.0000   0.0000   0.0000   0.3962
   2.750   0.9329   0.00686   0.00256  -0.1367  0.6371  1.0001  -1.1662   0.0000   0.0000   0.0000   0.3914
   3.000   0.9607   0.00692   0.00261  -0.1367  0.6311  1.0001  -1.1948   0.0000   0.0000   0.0000   0.3869
   3.250   0.9884   0.00700   0.00267  -0.1368  0.6252  1.0001  -1.2244   0.0000   0.0000   0.0000   0.3827
   3.500   1.0160   0.00708   0.00274  -0.1368  0.6187  1.0001  -1.2554   0.0000   0.0000   0.0000   0.3786
   3.750   1.0435   0.00716   0.00282  -0.1368  0.6117  1.0001  -1.2876   0.0000   0.0000   0.0000   0.3748
   4.000   1.0706   0.00727   0.00289  -0.1368  0.6047  1.0001  -1.3213   0.0000   0.0000   0.0000   0.3711
   4.250   1.0976   0.00738   0.00299  -0.1367  0.5967  1.0001  -1.3565   0.0000   0.0000   0.0000   0.3675
   4.500   1.1245   0.00748   0.00309  -0.1366  0.5880  1.0001  -1.3937   0.0000   0.0000   0.0000   0.3641
   4.750   1.1511   0.00761   0.00320  -0.1364  0.5787  1.0001  -1.4329   0.0000   0.0000   0.0000   0.3609
   5.000   1.1773   0.00775   0.00333  -0.1362  0.5685  1.0001  -1.4743   0.0000   0.0000   0.0000   0.3577
   5.250   1.2030   0.00792   0.00346  -0.1360  0.5573  1.0001  -1.5187   0.0000   0.0000   0.0000   0.3547
   5.500   1.2283   0.00810   0.00361  -0.1356  0.5448  1.0001  -1.5673   0.0000   0.0000   0.0000   0.3517
   5.750   1.2528   0.00832   0.00379  -0.1351  0.5312  1.0001  -1.6246   0.0000   0.0000   0.0000   0.3488
   6.000   1.2769   0.00856   0.00399  -0.1345  0.5158  1.0001  -1.6985   0.0000   0.0000   0.0000   0.3460
   6.250   1.2998   0.00886   0.00422  -0.1338  0.4991  1.0001  -1.7774   0.0000   0.0000   0.0000   0.3432
   6.500   1.3221   0.00918   0.00448  -0.1329  0.4810  1.0001  -1.8605   0.0000   0.0000   0.0000   0.3405
   6.750   1.3432   0.00955   0.00477  -0.1319  0.4618  1.0001  -1.9465   0.0000   0.0000   0.0000   0.3377
   7.000   1.3633   0.00996   0.00510  -0.1307  0.4422  1.0001  -2.0369   0.0000   0.0000   0.0000   0.3350
   7.250   1.3830   0.01038   0.00544  -0.1294  0.4229  1.0001  -2.1347   0.0000   0.0000   0.0000   0.3324
   7.500   1.4023   0.01080   0.00580  -0.1281  0.4045  1.0001  -2.2397   0.0000   0.0000   0.0000   0.3298
   7.750   1.4202   0.01127   0.00619  -0.1265  0.3864  1.0001  -2.3460   0.0000   0.0000   0.0000   0.3272
   8.250   1.4496   0.01229   0.00709  -0.1223  0.3496  1.0001  -2.5560   0.0000   0.0000   0.0000   0.3217
   8.500   1.4630   0.01290   0.00762  -0.1201  0.3307  1.0001  -2.6619   0.0000   0.0000   0.0000   0.3190
   8.750   1.4753   0.01360   0.00824  -0.1178  0.3110  1.0001  -2.7706   0.0000   0.0000   0.0000   0.3164
   9.000   1.4866   0.01439   0.00894  -0.1156  0.2909  1.0001  -2.8779   0.0000   0.0000   0.0000   0.3138
   9.250   1.4970   0.01528   0.00975  -0.1133  0.2706  1.0001  -2.9840   0.0000   0.0000   0.0000   0.3113
   9.500   1.5066   0.01626   0.01065  -0.1110  0.2503  1.0001  -3.0886   0.0000   0.0000   0.0000   0.3089
   9.750   1.5155   0.01735   0.01164  -0.1088  0.2304  1.0001  -3.1958   0.0000   0.0000   0.0000   0.3066
  10.000   1.5236   0.01853   0.01273  -0.1067  0.2109  1.0001  -3.3047   0.0000   0.0000   0.0000   0.3044
  10.250   1.5314   0.01978   0.01389  -0.1046  0.1918  1.0001  -3.4138   0.0000   0.0000   0.0000   0.3022
  10.500   1.5385   0.02111   0.01514  -0.1025  0.1732  1.0001  -3.5215   0.0000   0.0000   0.0000   0.3001
  10.750   1.5452   0.02251   0.01645  -0.1004  0.1558  1.0001  -3.6287   0.0000   0.0000   0.0000   0.2980
  11.000   1.5513   0.02397   0.01784  -0.0984  0.1395  1.0001  -3.7349   0.0000   0.0000   0.0000   0.2960
  11.250   1.5568   0.02551   0.01931  -0.0964  0.1242  1.0001  -3.8407   0.0000   0.0000   0.0000   0.2940
  11.500   1.5618   0.02710   0.02084  -0.0945  0.1100  1.0001  -3.9519   0.0000   0.0000   0.0000   0.2920
  11.750   1.5668   0.02872   0.02241  -0.0926  0.0975  1.0001  -4.0637   0.0000   0.0000   0.0000   0.2902
  12.000   1.5717   0.03039   0.02403  -0.0908  0.0868  1.0001  -4.1760   0.0000   0.0000   0.0000   0.2883
  12.250   1.5767   0.03205   0.02567  -0.0890  0.0776  1.0001  -4.2899   0.0000   0.0000   0.0000   0.2865
  12.500   1.5814   0.03378   0.02738  -0.0873  0.0698  1.0001  -4.4029   0.0000   0.0000   0.0000   0.2848
  12.750   1.5868   0.03551   0.02910  -0.0858  0.0629  1.0001  -4.5195   0.0000   0.0000   0.0000   0.2831
  13.000   1.5920   0.03730   0.03089  -0.0843  0.0571  1.0001  -4.6362   0.0000   0.0000   0.0000   0.2815
  13.250   1.5971   0.03913   0.03273  -0.0829  0.0522  1.0001  -4.7608   0.0000   0.0000   0.0000   0.2800
  13.500   1.6020   0.04101   0.03463  -0.0816  0.0481  1.0001  -4.8856   0.0000   0.0000   0.0000   0.2784
  13.750   1.6060   0.04303   0.03666  -0.0802  0.0447  1.0001  -5.0075   0.0000   0.0000   0.0000   0.2770
  14.000   1.6116   0.04494   0.03862  -0.0791  0.0416  1.0001  -5.1371   0.0000   0.0000   0.0000   0.2756
  14.250   1.6160   0.04701   0.04072  -0.0780  0.0390  1.0001  -5.2620   0.0000   0.0000   0.0000   0.2742
  14.500   1.6192   0.04921   0.04296  -0.0769  0.0366  1.0001  -5.3826   0.0000   0.0000   0.0000   0.2729
  14.750   1.6236   0.05134   0.04514  -0.0759  0.0345  1.0001  -5.5090   0.0000   0.0000   0.0000   0.2716
  15.000   1.6259   0.05373   0.04756  -0.0750  0.0326  1.0001  -5.6279   0.0000   0.0000   0.0000   0.2704
  15.250   1.6293   0.05606   0.04996  -0.0741  0.0310  1.0001  -5.7590   0.0000   0.0000   0.0000   0.2692
  15.500   1.6320   0.05850   0.05246  -0.0733  0.0295  1.0001  -5.8879   0.0000   0.0000   0.0000   0.2681
  15.750   1.6304   0.06145   0.05545  -0.0725  0.0282  1.0001  -5.9947   0.0000   0.0000   0.0000   0.2670
  16.000   1.6342   0.06382   0.05791  -0.0719  0.0271  1.0001  -6.1298   0.0000   0.0000   0.0000   0.2660
  16.250   1.6352   0.06655   0.06070  -0.0713  0.0260  1.0001  -6.2520   0.0000   0.0000   0.0000   0.2650
  16.500   1.6327   0.06975   0.06395  -0.0708  0.0250  1.0001  -6.3551   0.0000   0.0000   0.0000   0.2641
  16.750   1.6321   0.07279   0.06707  -0.0704  0.0242  1.0001  -6.4669   0.0000   0.0000   0.0000   0.2633
  17.000   1.6332   0.07565   0.07002  -0.0701  0.0233  1.0001  -6.5895   0.0000   0.0000   0.0000   0.2625
  17.250   1.6322   0.07881   0.07324  -0.0699  0.0225  1.0001  -6.7014   0.0000   0.0000   0.0000   0.2618
  17.500   1.6277   0.08242   0.07692  -0.0697  0.0218  1.0001  -6.7928   0.0000   0.0000   0.0000   0.2612
  17.750   1.6205   0.08647   0.08105  -0.0697  0.0212  1.0001  -6.8654   0.0000   0.0000   0.0000   0.2608
  18.000   1.6198   0.08971   0.08439  -0.0698  0.0207  1.0001  -6.9804   0.0000   0.0000   0.0000   0.2602
  18.250   1.6174   0.09321   0.08799  -0.0700  0.0202  1.0001  -7.0893   0.0000   0.0000   0.0000   0.2598
  18.500   1.6141   0.09688   0.09174  -0.0703  0.0197  1.0001  -7.1926   0.0000   0.0000   0.0000   0.2594
  18.750   1.6092   0.10081   0.09575  -0.0708  0.0192  1.0001  -7.2848   0.0000   0.0000   0.0000   0.2592
  19.000   1.6017   0.10512   0.10014  -0.0714  0.0188  1.0001  -7.3579   0.0000   0.0000   0.0000   0.2591
  19.250   1.5903   0.11005   0.10515  -0.0723  0.0184  1.0001  -7.4013   0.0000   0.0000   0.0000   0.2594
  19.500   1.5854   0.11411   0.10931  -0.0731  0.0180  1.0001  -7.4870   0.0000   0.0000   0.0000   0.2594
  19.750   1.5820   0.11796   0.11327  -0.0740  0.0176  1.0001  -7.5828   0.0000   0.0000   0.0000   0.2594
  20.000   1.5777   0.12200   0.11740  -0.0751  0.0172  1.0001  -7.6708   0.0000   0.0000   0.0000   0.2595


