xflr5 v6.61

 Calculated polar for: QX0026 thickness=13.65

 1 1 Reynolds number fixed          Mach number fixed         

 xtrf =   1.000 (top)        1.000 (bottom)
 Mach =   0.000     Re =     0.680 e 6     Ncrit =   9.000

  alpha     CL        CD       CDp       Cm    Top Xtr Bot Xtr   Cpmin    Chinge    XCp    
 ------- -------- --------- --------- -------- ------- ------- -------- --------- ---------
 -10.000  -0.4764   0.02278   0.01790  -0.1296  0.8118  0.0201  -6.5442   0.0000   0.0000   0.0000  -0.0407
  -9.750  -0.4538   0.02166   0.01671  -0.1298  0.8081  0.0205  -6.3332   0.0000   0.0000   0.0000  -0.0549
  -9.500  -0.4291   0.02102   0.01599  -0.1300  0.8047  0.0209  -6.0951   0.0000   0.0000   0.0000  -0.0720
  -9.250  -0.4042   0.02035   0.01519  -0.1301  0.8017  0.0215  -5.8690   0.0000   0.0000   0.0000  -0.0914
  -9.000  -0.3793   0.01953   0.01425  -0.1302  0.7981  0.0221  -5.6596   0.0000   0.0000   0.0000  -0.1133
  -8.750  -0.3544   0.01861   0.01314  -0.1303  0.7949  0.0226  -5.4670   0.0000   0.0000   0.0000  -0.1382
  -8.500  -0.3288   0.01785   0.01218  -0.1304  0.7923  0.0231  -5.2697   0.0000   0.0000   0.0000  -0.1678
  -8.250  -0.3042   0.01671   0.01089  -0.1304  0.7889  0.0237  -5.0892   0.0000   0.0000   0.0000  -0.2008
  -8.000  -0.2782   0.01601   0.01014  -0.1305  0.7858  0.0243  -4.8740   0.0000   0.0000   0.0000  -0.2422
  -7.750  -0.2513   0.01555   0.00961  -0.1306  0.7832  0.0250  -4.6527   0.0000   0.0000   0.0000  -0.2942
  -7.500  -0.2242   0.01507   0.00906  -0.1308  0.7802  0.0258  -4.4406   0.0000   0.0000   0.0000  -0.3593
  -7.250  -0.1968   0.01463   0.00853  -0.1309  0.7771  0.0266  -4.2315   0.0000   0.0000   0.0000  -0.4432
  -7.000  -0.1698   0.01408   0.00785  -0.1309  0.7744  0.0275  -4.0433   0.0000   0.0000   0.0000  -0.5527
  -6.750  -0.1428   0.01356   0.00732  -0.1310  0.7718  0.0285  -3.8539   0.0000   0.0000   0.0000  -0.7036
  -6.500  -0.1151   0.01320   0.00693  -0.1312  0.7687  0.0295  -3.6641   0.0000   0.0000   0.0000  -0.9324
  -6.250  -0.0872   0.01286   0.00651  -0.1313  0.7659  0.0306  -3.4815   0.0000   0.0000   0.0000  -1.3096
  -6.000  -0.0594   0.01246   0.00602  -0.1314  0.7635  0.0317  -3.3059   0.0000   0.0000   0.0000  -2.0367
  -5.750  -0.0318   0.01206   0.00563  -0.1315  0.7606  0.0331  -3.1241   0.0000   0.0000   0.0000  -4.0189
  -5.500  -0.0035   0.01182   0.00536  -0.1317  0.7576  0.0348  -2.9415   0.0000   0.0000   0.0000  -38.3838
  -5.250   0.0246   0.01150   0.00498  -0.1318  0.7550  0.0364  -2.7692   0.0000   0.0000   0.0000   5.7588
  -5.000   0.0528   0.01122   0.00468  -0.1320  0.7526  0.0383  -2.5979   0.0000   0.0000   0.0000   2.8165
  -4.750   0.0813   0.01101   0.00444  -0.1322  0.7495  0.0403  -2.4428   0.0000   0.0000   0.0000   1.9178
  -4.500   0.1094   0.01070   0.00413  -0.1324  0.7465  0.0428  -2.2901   0.0000   0.0000   0.0000   1.4883
  -4.250   0.1382   0.01055   0.00394  -0.1325  0.7440  0.0457  -2.1364   0.0000   0.0000   0.0000   1.2302
  -4.000   0.1665   0.01029   0.00368  -0.1327  0.7412  0.0492  -1.9878   0.0000   0.0000   0.0000   1.0635
  -3.750   0.1950   0.01006   0.00347  -0.1329  0.7380  0.0532  -1.8423   0.0000   0.0000   0.0000   0.9446
  -3.500   0.2237   0.00988   0.00327  -0.1331  0.7351  0.0584  -1.7022   0.0000   0.0000   0.0000   0.8556
  -3.250   0.2525   0.00972   0.00309  -0.1334  0.7326  0.0650  -1.5720   0.0000   0.0000   0.0000   0.7866
  -3.000   0.2810   0.00953   0.00295  -0.1335  0.7292  0.0741  -1.4451   0.0000   0.0000   0.0000   0.7322
  -2.750   0.3096   0.00934   0.00281  -0.1338  0.7260  0.0887  -1.3200   0.0000   0.0000   0.0000   0.6876
  -2.500   0.3383   0.00914   0.00268  -0.1340  0.7233  0.1129  -1.1969   0.0000   0.0000   0.0000   0.6506
  -2.250   0.3667   0.00893   0.00260  -0.1343  0.7202  0.1482  -1.0852   0.0000   0.0000   0.0000   0.6197
  -2.000   0.3952   0.00873   0.00254  -0.1345  0.7168  0.1892  -0.9764   0.0000   0.0000   0.0000   0.5932
  -1.750   0.4239   0.00857   0.00248  -0.1348  0.7138  0.2294  -0.8694   0.0000   0.0000   0.0000   0.5701
  -1.500   0.4525   0.00845   0.00245  -0.1351  0.7108  0.2687  -0.7882   0.0000   0.0000   0.0000   0.5499
  -1.250   0.4810   0.00829   0.00243  -0.1353  0.7072  0.3098  -0.8060   0.0000   0.0000   0.0000   0.5321
  -1.000   0.5096   0.00815   0.00240  -0.1355  0.7040  0.3569  -0.8245   0.0000   0.0000   0.0000   0.5163
  -0.750   0.5382   0.00801   0.00239  -0.1358  0.7010  0.4124  -0.8434   0.0000   0.0000   0.0000   0.5022
  -0.500   0.5663   0.00782   0.00241  -0.1360  0.6972  0.4792  -0.8625   0.0000   0.0000   0.0000   0.4896
  -0.250   0.5943   0.00763   0.00242  -0.1361  0.6937  0.5590  -0.8821   0.0000   0.0000   0.0000   0.4780
   0.000   0.6220   0.00744   0.00247  -0.1361  0.6906  0.6519  -0.9021   0.0000   0.0000   0.0000   0.4675
   0.250   0.6490   0.00727   0.00253  -0.1359  0.6865  0.7283  -0.9222   0.0000   0.0000   0.0000   0.4577
   0.750   0.6985   0.00695   0.00260  -0.1342  0.6793  0.8804  -0.9618   0.0000   0.0000   0.0000   0.4397
   1.000   0.7339   0.00679   0.00257  -0.1356  0.6750  0.9941  -0.9883   0.0000   0.0000   0.0000   0.4319
   1.250   0.7635   0.00684   0.00256  -0.1360  0.6713  1.0001  -1.0121   0.0000   0.0000   0.0000   0.4249
   1.500   0.7916   0.00689   0.00259  -0.1361  0.6668  1.0001  -1.0357   0.0000   0.0000   0.0000   0.4184
   1.750   0.8198   0.00694   0.00260  -0.1362  0.6623  1.0001  -1.0600   0.0000   0.0000   0.0000   0.4123
   2.000   0.8480   0.00700   0.00263  -0.1363  0.6580  1.0001  -1.0852   0.0000   0.0000   0.0000   0.4066
   2.250   0.8760   0.00705   0.00267  -0.1364  0.6529  1.0001  -1.1109   0.0000   0.0000   0.0000   0.4013
   2.500   0.9041   0.00713   0.00270  -0.1365  0.6483  1.0001  -1.1377   0.0000   0.0000   0.0000   0.3962
   2.750   0.9319   0.00718   0.00275  -0.1366  0.6426  1.0001  -1.1652   0.0000   0.0000   0.0000   0.3915
   3.000   0.9597   0.00726   0.00280  -0.1366  0.6374  1.0001  -1.1937   0.0000   0.0000   0.0000   0.3870
   3.250   0.9873   0.00732   0.00286  -0.1366  0.6311  1.0001  -1.2233   0.0000   0.0000   0.0000   0.3827
   3.500   1.0149   0.00740   0.00293  -0.1366  0.6250  1.0001  -1.2542   0.0000   0.0000   0.0000   0.3786
   3.750   1.0422   0.00749   0.00299  -0.1366  0.6184  1.0001  -1.2863   0.0000   0.0000   0.0000   0.3747
   4.000   1.0694   0.00758   0.00308  -0.1366  0.6110  1.0001  -1.3200   0.0000   0.0000   0.0000   0.3710
   4.250   1.0964   0.00768   0.00317  -0.1365  0.6036  1.0001  -1.3552   0.0000   0.0000   0.0000   0.3675
   4.750   1.1496   0.00792   0.00337  -0.1362  0.5864  1.0001  -1.4313   0.0000   0.0000   0.0000   0.3608
   5.000   1.1758   0.00805   0.00350  -0.1360  0.5767  1.0001  -1.4727   0.0000   0.0000   0.0000   0.3577
   5.250   1.2016   0.00820   0.00363  -0.1357  0.5661  1.0001  -1.5170   0.0000   0.0000   0.0000   0.3546
   5.500   1.2269   0.00838   0.00378  -0.1353  0.5544  1.0001  -1.5655   0.0000   0.0000   0.0000   0.3516
   6.000   1.2758   0.00880   0.00414  -0.1343  0.5272  1.0001  -1.6963   0.0000   0.0000   0.0000   0.3459
   6.250   1.2990   0.00907   0.00436  -0.1336  0.5113  1.0001  -1.7755   0.0000   0.0000   0.0000   0.3431
   6.500   1.3213   0.00938   0.00461  -0.1327  0.4941  1.0001  -1.8584   0.0000   0.0000   0.0000   0.3404
   6.750   1.3421   0.00975   0.00490  -0.1316  0.4755  1.0001  -1.9439   0.0000   0.0000   0.0000   0.3376
   7.000   1.3624   0.01014   0.00522  -0.1304  0.4558  1.0001  -2.0345   0.0000   0.0000   0.0000   0.3349
   7.250   1.3820   0.01056   0.00557  -0.1291  0.4365  1.0001  -2.1318   0.0000   0.0000   0.0000   0.3323
   7.500   1.4007   0.01100   0.00594  -0.1277  0.4182  1.0001  -2.2352   0.0000   0.0000   0.0000   0.3296
   7.750   1.4180   0.01148   0.00634  -0.1260  0.4001  1.0001  -2.3395   0.0000   0.0000   0.0000   0.3270
   8.000   1.4336   0.01194   0.00675  -0.1241  0.3820  1.0001  -2.4459   0.0000   0.0000   0.0000   0.3242
   8.250   1.4475   0.01248   0.00723  -0.1218  0.3640  1.0001  -2.5496   0.0000   0.0000   0.0000   0.3215
   8.500   1.4604   0.01311   0.00779  -0.1196  0.3454  1.0001  -2.6535   0.0000   0.0000   0.0000   0.3188
   8.750   1.4724   0.01382   0.00842  -0.1172  0.3262  1.0001  -2.7612   0.0000   0.0000   0.0000   0.3161
   9.000   1.4837   0.01461   0.00913  -0.1150  0.3064  1.0001  -2.8684   0.0000   0.0000   0.0000   0.3136
   9.250   1.4941   0.01550   0.00994  -0.1127  0.2863  1.0001  -2.9741   0.0000   0.0000   0.0000   0.3111
   9.500   1.5036   0.01649   0.01085  -0.1105  0.2660  1.0001  -3.0786   0.0000   0.0000   0.0000   0.3087
   9.750   1.5126   0.01757   0.01184  -0.1083  0.2457  1.0001  -3.1850   0.0000   0.0000   0.0000   0.3064
  10.000   1.5209   0.01875   0.01293  -0.1062  0.2258  1.0001  -3.2943   0.0000   0.0000   0.0000   0.3042
  10.250   1.5284   0.02002   0.01412  -0.1040  0.2062  1.0001  -3.4021   0.0000   0.0000   0.0000   0.3020
  10.500   1.5351   0.02138   0.01539  -0.1019  0.1872  1.0001  -3.5084   0.0000   0.0000   0.0000   0.2998
  10.750   1.5411   0.02283   0.01676  -0.0998  0.1690  1.0001  -3.6130   0.0000   0.0000   0.0000   0.2978
  11.250   1.5519   0.02590   0.01967  -0.0958  0.1359  1.0001  -3.8209   0.0000   0.0000   0.0000   0.2937
  11.500   1.5565   0.02752   0.02123  -0.0938  0.1209  1.0001  -3.9302   0.0000   0.0000   0.0000   0.2918
  11.750   1.5608   0.02921   0.02286  -0.0919  0.1072  1.0001  -4.0387   0.0000   0.0000   0.0000   0.2899
  12.000   1.5649   0.03094   0.02454  -0.0900  0.0950  1.0001  -4.1479   0.0000   0.0000   0.0000   0.2881
  12.250   1.5694   0.03266   0.02623  -0.0882  0.0845  1.0001  -4.2588   0.0000   0.0000   0.0000   0.2863
  12.500   1.5732   0.03448   0.02801  -0.0865  0.0759  1.0001  -4.3682   0.0000   0.0000   0.0000   0.2846
  12.750   1.5781   0.03626   0.02980  -0.0849  0.0682  1.0001  -4.4821   0.0000   0.0000   0.0000   0.2829
  13.000   1.5826   0.03812   0.03166  -0.0834  0.0617  1.0001  -4.5951   0.0000   0.0000   0.0000   0.2813
  13.250   1.5869   0.04003   0.03357  -0.0820  0.0562  1.0001  -4.7135   0.0000   0.0000   0.0000   0.2797
  13.500   1.5914   0.04198   0.03553  -0.0807  0.0516  1.0001  -4.8355   0.0000   0.0000   0.0000   0.2782
  13.750   1.5956   0.04400   0.03757  -0.0794  0.0478  1.0001  -4.9574   0.0000   0.0000   0.0000   0.2768
  14.000   1.5988   0.04617   0.03976  -0.0782  0.0446  1.0001  -5.0753   0.0000   0.0000   0.0000   0.2754
  14.250   1.6035   0.04821   0.04186  -0.0771  0.0416  1.0001  -5.2005   0.0000   0.0000   0.0000   0.2740
  14.500   1.6067   0.05045   0.04414  -0.0761  0.0392  1.0001  -5.3190   0.0000   0.0000   0.0000   0.2727
  14.750   1.6094   0.05278   0.04650  -0.0751  0.0369  1.0001  -5.4369   0.0000   0.0000   0.0000   0.2715
  15.000   1.6122   0.05515   0.04893  -0.0742  0.0349  1.0001  -5.5547   0.0000   0.0000   0.0000   0.2703
  15.250   1.6145   0.05762   0.05145  -0.0733  0.0331  1.0001  -5.6780   0.0000   0.0000   0.0000   0.2691
  15.500   1.6149   0.06035   0.05424  -0.0725  0.0315  1.0001  -5.7930   0.0000   0.0000   0.0000   0.2680
  15.750   1.6177   0.06283   0.05679  -0.0719  0.0301  1.0001  -5.9212   0.0000   0.0000   0.0000   0.2670
  16.000   1.6168   0.06577   0.05978  -0.0712  0.0289  1.0001  -6.0310   0.0000   0.0000   0.0000   0.2660
  16.250   1.6154   0.06884   0.06292  -0.0707  0.0278  1.0001  -6.1369   0.0000   0.0000   0.0000   0.2651
  16.500   1.6169   0.07161   0.06578  -0.0703  0.0267  1.0001  -6.2587   0.0000   0.0000   0.0000   0.2642
  16.750   1.6160   0.07472   0.06896  -0.0699  0.0258  1.0001  -6.3689   0.0000   0.0000   0.0000   0.2635
  17.000   1.6108   0.07840   0.07270  -0.0697  0.0249  1.0001  -6.4544   0.0000   0.0000   0.0000   0.2628
  17.250   1.6089   0.08170   0.07609  -0.0695  0.0242  1.0001  -6.5567   0.0000   0.0000   0.0000   0.2622
  17.500   1.6082   0.08488   0.07936  -0.0694  0.0234  1.0001  -6.6669   0.0000   0.0000   0.0000   0.2615
  17.750   1.6061   0.08830   0.08286  -0.0695  0.0227  1.0001  -6.7693   0.0000   0.0000   0.0000   0.2610
  18.000   1.6012   0.09215   0.08678  -0.0697  0.0220  1.0001  -6.8549   0.0000   0.0000   0.0000   0.2606
  18.250   1.5919   0.09665   0.09135  -0.0701  0.0215  1.0001  -6.9167   0.0000   0.0000   0.0000   0.2605
  18.500   1.5879   0.10048   0.09529  -0.0705  0.0210  1.0001  -7.0101   0.0000   0.0000   0.0000   0.2603
  18.750   1.5849   0.10416   0.09907  -0.0710  0.0205  1.0001  -7.1098   0.0000   0.0000   0.0000   0.2600
  19.000   1.5807   0.10804   0.10305  -0.0716  0.0200  1.0001  -7.2015   0.0000   0.0000   0.0000   0.2599
  19.250   1.5760   0.11206   0.10715  -0.0724  0.0196  1.0001  -7.2888   0.0000   0.0000   0.0000   0.2599
  19.500   1.5704   0.11624   0.11142  -0.0734  0.0191  1.0001  -7.3691   0.0000   0.0000   0.0000   0.2600
  19.750   1.5629   0.12075   0.11599  -0.0745  0.0188  1.0001  -7.4343   0.0000   0.0000   0.0000   0.2603
  20.000   1.5526   0.12572   0.12103  -0.0759  0.0184  1.0001  -7.4741   0.0000   0.0000   0.0000   0.2609


