xflr5 v6.61

 Calculated polar for: QX0026 thickness=13.65

 1 1 Reynolds number fixed          Mach number fixed         

 xtrf =   1.000 (top)        1.000 (bottom)
 Mach =   0.000     Re =     0.720 e 6     Ncrit =   9.000

  alpha     CL        CD       CDp       Cm    Top Xtr Bot Xtr   Cpmin    Chinge    XCp    
 ------- -------- --------- --------- -------- ------- ------- -------- --------- ---------
 -10.000  -0.4765   0.02267   0.01785  -0.1294  0.8083  0.0196  -6.5568   0.0000   0.0000   0.0000  -0.0403
  -9.750  -0.4572   0.02071   0.01563  -0.1296  0.8047  0.0201  -6.4172   0.0000   0.0000   0.0000  -0.0523
  -9.500  -0.4334   0.01983   0.01466  -0.1297  0.8018  0.0206  -6.1914   0.0000   0.0000   0.0000  -0.0684
  -9.250  -0.4078   0.01927   0.01406  -0.1299  0.7982  0.0210  -5.9489   0.0000   0.0000   0.0000  -0.0880
  -9.000  -0.3822   0.01863   0.01331  -0.1300  0.7949  0.0216  -5.7227   0.0000   0.0000   0.0000  -0.1101
  -8.750  -0.3567   0.01790   0.01243  -0.1301  0.7922  0.0221  -5.5123   0.0000   0.0000   0.0000  -0.1351
  -8.500  -0.3309   0.01715   0.01154  -0.1302  0.7889  0.0227  -5.3076   0.0000   0.0000   0.0000  -0.1646
  -8.250  -0.3044   0.01656   0.01080  -0.1303  0.7858  0.0232  -5.0982   0.0000   0.0000   0.0000  -0.1999
  -8.000  -0.2795   0.01551   0.00962  -0.1303  0.7831  0.0239  -4.9107   0.0000   0.0000   0.0000  -0.2391
  -7.750  -0.2528   0.01498   0.00906  -0.1304  0.7800  0.0245  -4.6892   0.0000   0.0000   0.0000  -0.2901
  -7.500  -0.2256   0.01456   0.00859  -0.1306  0.7770  0.0252  -4.4687   0.0000   0.0000   0.0000  -0.3548
  -7.250  -0.1981   0.01416   0.00811  -0.1307  0.7743  0.0261  -4.2544   0.0000   0.0000   0.0000  -0.4378
  -7.000  -0.1703   0.01385   0.00769  -0.1308  0.7716  0.0270  -4.0542   0.0000   0.0000   0.0000  -0.5495
  -6.750  -0.1436   0.01317   0.00697  -0.1309  0.7686  0.0280  -3.8779   0.0000   0.0000   0.0000  -0.6966
  -6.500  -0.1160   0.01281   0.00659  -0.1310  0.7658  0.0289  -3.6843   0.0000   0.0000   0.0000  -0.9217
  -6.250  -0.0880   0.01251   0.00621  -0.1311  0.7634  0.0300  -3.4963   0.0000   0.0000   0.0000  -1.2934
  -6.000  -0.0598   0.01222   0.00587  -0.1313  0.7605  0.0311  -3.3136   0.0000   0.0000   0.0000  -2.0181
  -5.750  -0.0324   0.01174   0.00537  -0.1314  0.7575  0.0325  -3.1383   0.0000   0.0000   0.0000  -3.9377
  -5.500  -0.0041   0.01151   0.00511  -0.1316  0.7549  0.0341  -2.9524   0.0000   0.0000   0.0000  -33.1166
  -5.250   0.0245   0.01133   0.00486  -0.1317  0.7525  0.0357  -2.7735   0.0000   0.0000   0.0000   5.7741
  -5.000   0.0523   0.01094   0.00448  -0.1319  0.7494  0.0376  -2.6077   0.0000   0.0000   0.0000   2.8374
  -4.750   0.0809   0.01073   0.00425  -0.1321  0.7466  0.0397  -2.4495   0.0000   0.0000   0.0000   1.9245
  -4.500   0.1093   0.01046   0.00394  -0.1323  0.7440  0.0421  -2.2968   0.0000   0.0000   0.0000   1.4891
  -4.250   0.1379   0.01030   0.00377  -0.1325  0.7413  0.0450  -2.1415   0.0000   0.0000   0.0000   1.2318
  -4.000   0.1663   0.01006   0.00353  -0.1327  0.7381  0.0483  -1.9923   0.0000   0.0000   0.0000   1.0640
  -3.750   0.1950   0.00987   0.00332  -0.1328  0.7353  0.0522  -1.8454   0.0000   0.0000   0.0000   0.9442
  -3.500   0.2238   0.00972   0.00314  -0.1331  0.7328  0.0571  -1.7042   0.0000   0.0000   0.0000   0.8549
  -3.250   0.2523   0.00952   0.00298  -0.1333  0.7295  0.0637  -1.5744   0.0000   0.0000   0.0000   0.7865
  -3.000   0.2810   0.00933   0.00283  -0.1335  0.7263  0.0725  -1.4465   0.0000   0.0000   0.0000   0.7319
  -2.750   0.3097   0.00916   0.00268  -0.1337  0.7236  0.0865  -1.3207   0.0000   0.0000   0.0000   0.6872
  -2.500   0.3383   0.00897   0.00257  -0.1339  0.7206  0.1098  -1.1976   0.0000   0.0000   0.0000   0.6504
  -2.250   0.3668   0.00875   0.00249  -0.1342  0.7172  0.1433  -1.0855   0.0000   0.0000   0.0000   0.6194
  -2.000   0.3954   0.00857   0.00241  -0.1345  0.7142  0.1834  -0.9763   0.0000   0.0000   0.0000   0.5928
  -1.750   0.4241   0.00843   0.00236  -0.1347  0.7114  0.2230  -0.8692   0.0000   0.0000   0.0000   0.5697
  -1.500   0.4526   0.00827   0.00234  -0.1350  0.7078  0.2614  -0.7885   0.0000   0.0000   0.0000   0.5496
  -1.250   0.4813   0.00813   0.00230  -0.1352  0.7045  0.3018  -0.8065   0.0000   0.0000   0.0000   0.5318
  -1.000   0.5100   0.00802   0.00227  -0.1355  0.7017  0.3470  -0.8251   0.0000   0.0000   0.0000   0.5160
  -0.750   0.5383   0.00785   0.00228  -0.1357  0.6980  0.3998  -0.8437   0.0000   0.0000   0.0000   0.5020
  -0.500   0.5667   0.00768   0.00228  -0.1360  0.6944  0.4634  -0.8630   0.0000   0.0000   0.0000   0.4893
  -0.250   0.5950   0.00751   0.00229  -0.1362  0.6914  0.5403  -0.8828   0.0000   0.0000   0.0000   0.4778
   0.000   0.6225   0.00729   0.00235  -0.1362  0.6875  0.6302  -0.9026   0.0000   0.0000   0.0000   0.4674
   0.250   0.6499   0.00713   0.00240  -0.1361  0.6838  0.7123  -0.9229   0.0000   0.0000   0.0000   0.4576
   0.500   0.6768   0.00701   0.00243  -0.1358  0.6805  0.7771  -0.9436   0.0000   0.0000   0.0000   0.4485
   0.750   0.7012   0.00683   0.00249  -0.1349  0.6762  0.8541  -0.9634   0.0000   0.0000   0.0000   0.4399
   1.000   0.7277   0.00665   0.00248  -0.1342  0.6724  0.9603  -0.9850   0.0000   0.0000   0.0000   0.4315
   1.250   0.7637   0.00667   0.00246  -0.1360  0.6685  1.0001  -1.0125   0.0000   0.0000   0.0000   0.4249
   1.500   0.7919   0.00671   0.00248  -0.1361  0.6639  1.0001  -1.0361   0.0000   0.0000   0.0000   0.4184
   1.750   0.8203   0.00678   0.00249  -0.1363  0.6599  1.0001  -1.0606   0.0000   0.0000   0.0000   0.4123
   2.000   0.8483   0.00682   0.00253  -0.1364  0.6548  1.0001  -1.0856   0.0000   0.0000   0.0000   0.4066
   2.250   0.8765   0.00688   0.00255  -0.1365  0.6503  1.0001  -1.1115   0.0000   0.0000   0.0000   0.4012
   2.500   0.9045   0.00694   0.00261  -0.1365  0.6450  1.0001  -1.1381   0.0000   0.0000   0.0000   0.3962
   2.750   0.9324   0.00701   0.00264  -0.1366  0.6398  1.0001  -1.1657   0.0000   0.0000   0.0000   0.3914
   3.000   0.9602   0.00707   0.00270  -0.1367  0.6340  1.0001  -1.1942   0.0000   0.0000   0.0000   0.3869
   3.250   0.9879   0.00716   0.00275  -0.1367  0.6283  1.0001  -1.2239   0.0000   0.0000   0.0000   0.3827
   3.500   1.0155   0.00723   0.00283  -0.1367  0.6216  1.0001  -1.2548   0.0000   0.0000   0.0000   0.3786
   3.750   1.0428   0.00732   0.00290  -0.1367  0.6151  1.0001  -1.2869   0.0000   0.0000   0.0000   0.3747
   4.000   1.0700   0.00742   0.00298  -0.1366  0.6078  1.0001  -1.3207   0.0000   0.0000   0.0000   0.3710
   4.250   1.0971   0.00751   0.00307  -0.1366  0.5999  1.0001  -1.3559   0.0000   0.0000   0.0000   0.3675
   4.500   1.1239   0.00763   0.00317  -0.1365  0.5916  1.0001  -1.3930   0.0000   0.0000   0.0000   0.3641
   4.750   1.1503   0.00776   0.00328  -0.1363  0.5827  1.0001  -1.4321   0.0000   0.0000   0.0000   0.3608
   5.000   1.1764   0.00790   0.00341  -0.1361  0.5728  1.0001  -1.4734   0.0000   0.0000   0.0000   0.3577
   5.250   1.2022   0.00806   0.00354  -0.1358  0.5619  1.0001  -1.5177   0.0000   0.0000   0.0000   0.3546
   5.500   1.2276   0.00823   0.00369  -0.1355  0.5498  1.0001  -1.5664   0.0000   0.0000   0.0000   0.3517
   5.750   1.2524   0.00843   0.00386  -0.1350  0.5362  1.0001  -1.6240   0.0000   0.0000   0.0000   0.3488
   6.000   1.2763   0.00868   0.00406  -0.1344  0.5214  1.0001  -1.6973   0.0000   0.0000   0.0000   0.3459
   6.250   1.2995   0.00895   0.00428  -0.1337  0.5052  1.0001  -1.7767   0.0000   0.0000   0.0000   0.3432
   6.500   1.3214   0.00929   0.00454  -0.1328  0.4875  1.0001  -1.8590   0.0000   0.0000   0.0000   0.3404
   6.750   1.3428   0.00964   0.00483  -0.1318  0.4683  1.0001  -1.9455   0.0000   0.0000   0.0000   0.3377
   7.000   1.3631   0.01004   0.00515  -0.1306  0.4487  1.0001  -2.0362   0.0000   0.0000   0.0000   0.3350
   7.250   1.3825   0.01046   0.00550  -0.1293  0.4297  1.0001  -2.1332   0.0000   0.0000   0.0000   0.3323
   7.500   1.4011   0.01091   0.00588  -0.1278  0.4112  1.0001  -2.2367   0.0000   0.0000   0.0000   0.3297
   7.750   1.4194   0.01136   0.00626  -0.1263  0.3929  1.0001  -2.3434   0.0000   0.0000   0.0000   0.3271
   8.000   1.4346   0.01184   0.00668  -0.1243  0.3750  1.0001  -2.4490   0.0000   0.0000   0.0000   0.3243
   8.250   1.4482   0.01240   0.00716  -0.1220  0.3568  1.0001  -2.5520   0.0000   0.0000   0.0000   0.3215
   8.500   1.4616   0.01301   0.00771  -0.1198  0.3379  1.0001  -2.6574   0.0000   0.0000   0.0000   0.3189
   8.750   1.4740   0.01370   0.00832  -0.1176  0.3183  1.0001  -2.7663   0.0000   0.0000   0.0000   0.3162
   9.000   1.4853   0.01449   0.00903  -0.1153  0.2983  1.0001  -2.8736   0.0000   0.0000   0.0000   0.3137
   9.250   1.4957   0.01538   0.00984  -0.1130  0.2782  1.0001  -2.9794   0.0000   0.0000   0.0000   0.3112
   9.500   1.5051   0.01638   0.01075  -0.1108  0.2578  1.0001  -3.0835   0.0000   0.0000   0.0000   0.3088
  10.000   1.5223   0.01863   0.01283  -0.1064  0.2181  1.0001  -3.2997   0.0000   0.0000   0.0000   0.3043
  10.250   1.5300   0.01989   0.01400  -0.1043  0.1988  1.0001  -3.4084   0.0000   0.0000   0.0000   0.3021
  10.500   1.5369   0.02124   0.01526  -0.1022  0.1799  1.0001  -3.5153   0.0000   0.0000   0.0000   0.3000
  10.750   1.5432   0.02266   0.01660  -0.1002  0.1620  1.0001  -3.6211   0.0000   0.0000   0.0000   0.2979
  11.000   1.5490   0.02414   0.01800  -0.0981  0.1454  1.0001  -3.7264   0.0000   0.0000   0.0000   0.2958
  11.250   1.5543   0.02570   0.01949  -0.0961  0.1298  1.0001  -3.8308   0.0000   0.0000   0.0000   0.2939
  11.500   1.5591   0.02732   0.02104  -0.0941  0.1152  1.0001  -3.9408   0.0000   0.0000   0.0000   0.2919
  11.750   1.5638   0.02897   0.02263  -0.0922  0.1020  1.0001  -4.0513   0.0000   0.0000   0.0000   0.2900
  12.000   1.5686   0.03064   0.02426  -0.0904  0.0905  1.0001  -4.1630   0.0000   0.0000   0.0000   0.2882
  12.250   1.5730   0.03236   0.02595  -0.0886  0.0810  1.0001  -4.2741   0.0000   0.0000   0.0000   0.2864
  12.500   1.5778   0.03409   0.02766  -0.0869  0.0725  1.0001  -4.3875   0.0000   0.0000   0.0000   0.2847
  12.750   1.5822   0.03590   0.02946  -0.0853  0.0654  1.0001  -4.4999   0.0000   0.0000   0.0000   0.2830
  13.000   1.5868   0.03776   0.03131  -0.0838  0.0593  1.0001  -4.6135   0.0000   0.0000   0.0000   0.2814
  13.250   1.5914   0.03963   0.03319  -0.0824  0.0542  1.0001  -4.7348   0.0000   0.0000   0.0000   0.2798
  13.500   1.5961   0.04154   0.03512  -0.0811  0.0498  1.0001  -4.8583   0.0000   0.0000   0.0000   0.2783
  13.750   1.6014   0.04346   0.03706  -0.0799  0.0461  1.0001  -4.9852   0.0000   0.0000   0.0000   0.2769
  14.000   1.6060   0.04547   0.03912  -0.0787  0.0430  1.0001  -5.1098   0.0000   0.0000   0.0000   0.2755
  14.250   1.6086   0.04773   0.04139  -0.0775  0.0403  1.0001  -5.2259   0.0000   0.0000   0.0000   0.2741
  14.500   1.6138   0.04974   0.04347  -0.0765  0.0378  1.0001  -5.3548   0.0000   0.0000   0.0000   0.2728
  14.750   1.6157   0.05214   0.04590  -0.0755  0.0357  1.0001  -5.4690   0.0000   0.0000   0.0000   0.2715
  15.000   1.6200   0.05434   0.04815  -0.0746  0.0337  1.0001  -5.5953   0.0000   0.0000   0.0000   0.2703
  15.250   1.6199   0.05706   0.05091  -0.0737  0.0320  1.0001  -5.7084   0.0000   0.0000   0.0000   0.2692
  15.500   1.6245   0.05931   0.05324  -0.0730  0.0304  1.0001  -5.8459   0.0000   0.0000   0.0000   0.2680
  15.750   1.6253   0.06200   0.05598  -0.0722  0.0291  1.0001  -5.9652   0.0000   0.0000   0.0000   0.2670
  16.000   1.6238   0.06498   0.05902  -0.0715  0.0280  1.0001  -6.0717   0.0000   0.0000   0.0000   0.2660
  16.250   1.6264   0.06757   0.06169  -0.0710  0.0268  1.0001  -6.2000   0.0000   0.0000   0.0000   0.2650
  16.500   1.6264   0.07049   0.06469  -0.0706  0.0258  1.0001  -6.3158   0.0000   0.0000   0.0000   0.2642
  16.750   1.6223   0.07397   0.06822  -0.0702  0.0249  1.0001  -6.4087   0.0000   0.0000   0.0000   0.2634
  17.000   1.6216   0.07708   0.07142  -0.0699  0.0241  1.0001  -6.5192   0.0000   0.0000   0.0000   0.2627
  17.250   1.6216   0.08011   0.07453  -0.0697  0.0233  1.0001  -6.6352   0.0000   0.0000   0.0000   0.2619
  17.500   1.6198   0.08340   0.07790  -0.0696  0.0226  1.0001  -6.7412   0.0000   0.0000   0.0000   0.2613
  17.750   1.6149   0.08715   0.08172  -0.0696  0.0219  1.0001  -6.8289   0.0000   0.0000   0.0000   0.2608
  18.000   1.6055   0.09160   0.08624  -0.0698  0.0213  1.0001  -6.8863   0.0000   0.0000   0.0000   0.2606
  18.250   1.6047   0.09493   0.08968  -0.0701  0.0208  1.0001  -7.0027   0.0000   0.0000   0.0000   0.2601
  18.500   1.6018   0.09856   0.09341  -0.0704  0.0203  1.0001  -7.1063   0.0000   0.0000   0.0000   0.2598
  18.750   1.5980   0.10236   0.09730  -0.0709  0.0198  1.0001  -7.2031   0.0000   0.0000   0.0000   0.2596
  19.000   1.5930   0.10631   0.10133  -0.0715  0.0194  1.0001  -7.2927   0.0000   0.0000   0.0000   0.2594
  19.250   1.5864   0.11057   0.10567  -0.0723  0.0189  1.0001  -7.3693   0.0000   0.0000   0.0000   0.2595
  19.500   1.5769   0.11532   0.11049  -0.0733  0.0185  1.0001  -7.4229   0.0000   0.0000   0.0000   0.2598
  19.750   1.5673   0.12015   0.11541  -0.0745  0.0182  1.0001  -7.4714   0.0000   0.0000   0.0000   0.2602
  20.000   1.5647   0.12396   0.11933  -0.0755  0.0178  1.0001  -7.5682   0.0000   0.0000   0.0000   0.2602


