xflr5 v6.61

 Calculated polar for: QX0024

 1 1 Reynolds number fixed          Mach number fixed         

 xtrf =   1.000 (top)        1.000 (bottom)
 Mach =   0.000     Re =     0.500 e 6     Ncrit =   9.000

  alpha     CL        CD       CDp       Cm    Top Xtr Bot Xtr   Cpmin    Chinge    XCp    
 ------- -------- --------- --------- -------- ------- ------- -------- --------- ---------
  -5.000   0.1247   0.01206   0.00528  -0.1497  0.7739  0.0427  -2.4392   0.0000   0.0000   0.0000   1.4812
  -4.500   0.1837   0.01145   0.00466  -0.1507  0.7672  0.0506  -2.1291   0.0000   0.0000   0.0000   1.0885
  -4.000   0.2431   0.01090   0.00416  -0.1516  0.7608  0.0677  -1.8430   0.0000   0.0000   0.0000   0.8860
  -3.500   0.3026   0.01049   0.00379  -0.1526  0.7545  0.0971  -1.5728   0.0000   0.0000   0.0000   0.7625
  -3.000   0.3619   0.01011   0.00354  -0.1536  0.7472  0.1364  -1.3155   0.0000   0.0000   0.0000   0.6801
  -2.500   0.4211   0.00978   0.00338  -0.1545  0.7399  0.1982  -1.0749   0.0000   0.0000   0.0000   0.6208
  -2.000   0.4804   0.00946   0.00327  -0.1555  0.7325  0.2743  -0.8516   0.0000   0.0000   0.0000   0.5760
  -1.500   0.5397   0.00918   0.00320  -0.1565  0.7243  0.3665  -0.8514   0.0000   0.0000   0.0000   0.5410
  -0.500   0.6573   0.00865   0.00319  -0.1580  0.7064  0.5790  -0.9430   0.0000   0.0000   0.0000   0.4896
   0.000   0.7146   0.00847   0.00331  -0.1583  0.6974  0.7002  -0.9894   0.0000   0.0000   0.0000   0.4699
   0.500   0.7704   0.00844   0.00342  -0.1581  0.6882  0.7810  -1.0353   0.0000   0.0000   0.0000   0.4528
   1.000   0.8251   0.00843   0.00349  -0.1576  0.6784  0.8325  -1.0808   0.0000   0.0000   0.0000   0.4380
   1.500   0.8774   0.00840   0.00352  -0.1567  0.6683  0.8783  -1.1260   0.0000   0.0000   0.0000   0.4247
   2.000   0.9232   0.00824   0.00347  -0.1541  0.6572  0.9553  -1.1703   0.0000   0.0000   0.0000   0.4125
   2.500   0.9828   0.00833   0.00350  -0.1551  0.6436  1.0000  -1.2300   0.0000   0.0000   0.0000   0.4027
   3.000   1.0403   0.00851   0.00361  -0.1557  0.6283  1.0000  -1.2950   0.0000   0.0000   0.0000   0.3939
   3.500   1.0965   0.00872   0.00376  -0.1560  0.6116  1.0000  -1.3741   0.0000   0.0000   0.0000   0.3858
   4.000   1.1512   0.00899   0.00394  -0.1560  0.5920  1.0000  -1.4545   0.0000   0.0000   0.0000   0.3784
   4.500   1.2047   0.00931   0.00420  -0.1559  0.5714  1.0000  -1.5364   0.0000   0.0000   0.0000   0.3715
   5.000   1.2572   0.00970   0.00453  -0.1555  0.5513  1.0000  -1.6197   0.0000   0.0000   0.0000   0.3651
   5.500   1.3081   0.01015   0.00492  -0.1549  0.5307  1.0000  -1.7048   0.0000   0.0000   0.0000   0.3591
   6.000   1.3576   0.01065   0.00538  -0.1541  0.5089  1.0000  -1.7936   0.0000   0.0000   0.0000   0.3535
   6.500   1.4050   0.01122   0.00590  -0.1529  0.4861  1.0000  -1.9092   0.0000   0.0000   0.0000   0.3481
   7.000   1.4495   0.01187   0.00650  -0.1513  0.4608  1.0000  -2.0490   0.0000   0.0000   0.0000   0.3428
   7.500   1.4889   0.01268   0.00722  -0.1487  0.4300  1.0000  -2.1979   0.0000   0.0000   0.0000   0.3375
   8.000   1.5239   0.01357   0.00804  -0.1454  0.4021  1.0000  -2.3456   0.0000   0.0000   0.0000   0.3323
   8.500   1.5519   0.01466   0.00906  -0.1410  0.3731  1.0000  -2.4859   0.0000   0.0000   0.0000   0.3269
   9.000   1.5783   0.01600   0.01033  -0.1368  0.3451  1.0000  -2.6453   0.0000   0.0000   0.0000   0.3219
   9.500   1.6033   0.01757   0.01184  -0.1328  0.3182  1.0000  -2.8443   0.0000   0.0000   0.0000   0.3171
  10.000   1.6265   0.01939   0.01362  -0.1289  0.2892  1.0000  -3.0725   0.0000   0.0000   0.0000   0.3127
  10.500   1.6447   0.02170   0.01585  -0.1248  0.2596  1.0000  -3.3089   0.0000   0.0000   0.0000   0.3084
  11.000   1.6595   0.02440   0.01847  -0.1208  0.2308  1.0000  -3.5507   0.0000   0.0000   0.0000   0.3043
  11.500   1.6731   0.02734   0.02134  -0.1170  0.2059  1.0000  -3.7942   0.0000   0.0000   0.0000   0.3004
  12.000   1.6855   0.03048   0.02445  -0.1134  0.1832  1.0000  -4.0459   0.0000   0.0000   0.0000   0.2968
  12.500   1.6945   0.03400   0.02794  -0.1098  0.1610  1.0000  -4.2894   0.0000   0.0000   0.0000   0.2933
  13.000   1.7015   0.03785   0.03176  -0.1064  0.1395  1.0000  -4.5286   0.0000   0.0000   0.0000   0.2900
  13.500   1.7065   0.04208   0.03596  -0.1033  0.1178  1.0000  -4.7628   0.0000   0.0000   0.0000   0.2869
  14.000   1.7079   0.04686   0.04072  -0.1004  0.0993  1.0000  -4.9837   0.0000   0.0000   0.0000   0.2840
  14.500   1.7070   0.05209   0.04596  -0.0978  0.0852  1.0000  -5.1962   0.0000   0.0000   0.0000   0.2814
  15.000   1.7059   0.05759   0.05152  -0.0956  0.0745  1.0000  -5.4082   0.0000   0.0000   0.0000   0.2790
  15.500   1.7039   0.06343   0.05744  -0.0939  0.0659  1.0000  -5.6169   0.0000   0.0000   0.0000   0.2769
  16.000   1.7012   0.06955   0.06366  -0.0926  0.0586  1.0000  -5.8225   0.0000   0.0000   0.0000   0.2750
  16.500   1.6967   0.07610   0.07033  -0.0917  0.0525  1.0000  -6.0184   0.0000   0.0000   0.0000   0.2734
  17.000   1.6916   0.08290   0.07727  -0.0912  0.0468  1.0000  -6.2097   0.0000   0.0000   0.0000   0.2721
  17.500   1.6833   0.09030   0.08480  -0.0913  0.0420  1.0000  -6.3885   0.0000   0.0000   0.0000   0.2711
  18.000   1.6727   0.09821   0.09285  -0.0919  0.0379  1.0000  -6.5713   0.0000   0.0000   0.0000   0.2706
  18.500   1.6610   0.10645   0.10123  -0.0931  0.0342  1.0000  -6.7430   0.0000   0.0000   0.0000   0.2704
  19.000   1.6511   0.11459   0.10954  -0.0949  0.0306  1.0000  -6.9225   0.0000   0.0000   0.0000   0.2705
  19.500   1.6405   0.12298   0.11808  -0.0974  0.0275  1.0000  -7.0940   0.0000   0.0000   0.0000   0.2711
  20.000   1.6298   0.13153   0.12678  -0.1006  0.0250  1.0000  -7.2552   0.0000   0.0000   0.0000   0.2721


