xflr5 v6.61

 Calculated polar for: QX0026 thickness=13.65

 1 1 Reynolds number fixed          Mach number fixed         

 xtrf =   1.000 (top)        1.000 (bottom)
 Mach =   0.000     Re =     0.340 e 6     Ncrit =   9.000

  alpha     CL        CD       CDp       Cm    Top Xtr Bot Xtr   Cpmin    Chinge    XCp    
 ------- -------- --------- --------- -------- ------- ------- -------- --------- ---------
  -9.750  -0.1709   0.09307   0.08978  -0.0817  0.8648  0.0415  -1.8644   0.0000   0.0000   0.0000  -0.2657
  -9.500  -0.1609   0.09077   0.08748  -0.0823  0.8599  0.0423  -1.7993   0.0000   0.0000   0.0000  -0.3002
  -9.250  -0.1552   0.08774   0.08441  -0.0839  0.8558  0.0439  -1.7944   0.0000   0.0000   0.0000  -0.3295
  -8.750  -0.1577   0.07835   0.07503  -0.0909  0.8465  0.0466  -1.9795   0.0000   0.0000   0.0000  -0.3632
  -8.500  -0.1476   0.07612   0.07279  -0.0917  0.8421  0.0473  -1.9166   0.0000   0.0000   0.0000  -0.4088
  -8.250  -0.1416   0.07293   0.06958  -0.0938  0.8384  0.0485  -1.9193   0.0000   0.0000   0.0000  -0.4504
  -7.750  -0.1841   0.04142   0.03757  -0.1294  0.8270  0.0420  -3.0688   0.0000   0.0000   0.0000  -0.4820
  -7.500  -0.2025   0.02456   0.01878  -0.1344  0.8225  0.0347  -3.8913   0.0000   0.0000   0.0000  -0.4420
  -7.250  -0.1799   0.02266   0.01629  -0.1344  0.8193  0.0358  -3.8182   0.0000   0.0000   0.0000  -0.5280
  -7.000  -0.1559   0.02107   0.01458  -0.1345  0.8157  0.0366  -3.6754   0.0000   0.0000   0.0000  -0.6471
  -6.750  -0.1298   0.02023   0.01365  -0.1345  0.8128  0.0376  -3.4998   0.0000   0.0000   0.0000  -0.8261
  -6.500  -0.1036   0.01935   0.01261  -0.1345  0.8097  0.0388  -3.3599   0.0000   0.0000   0.0000  -1.0955
  -6.250  -0.0771   0.01852   0.01151  -0.1345  0.8062  0.0403  -3.2340   0.0000   0.0000   0.0000  -1.5545
  -6.000  -0.0506   0.01767   0.01061  -0.1345  0.8034  0.0419  -3.0801   0.0000   0.0000   0.0000  -2.4990
  -5.750  -0.0235   0.01716   0.01004  -0.1346  0.8005  0.0437  -2.9207   0.0000   0.0000   0.0000  -5.6706
  -5.500   0.0038   0.01661   0.00931  -0.1345  0.7970  0.0455  -2.7805   0.0000   0.0000   0.0000  36.9830
  -5.250   0.0307   0.01589   0.00861  -0.1346  0.7942  0.0474  -2.6281   0.0000   0.0000   0.0000   4.7590
  -5.000   0.0585   0.01551   0.00816  -0.1346  0.7916  0.0501  -2.4716   0.0000   0.0000   0.0000   2.6157
  -4.750   0.0852   0.01502   0.00767  -0.1346  0.7879  0.0528  -2.3337   0.0000   0.0000   0.0000   1.8703
  -4.500   0.1131   0.01465   0.00725  -0.1346  0.7850  0.0560  -2.1977   0.0000   0.0000   0.0000   1.4698
  -4.250   0.1409   0.01420   0.00680  -0.1347  0.7827  0.0594  -2.0613   0.0000   0.0000   0.0000   1.2281
  -4.000   0.1678   0.01389   0.00649  -0.1347  0.7788  0.0640  -1.9287   0.0000   0.0000   0.0000   1.0699
  -3.750   0.1958   0.01360   0.00618  -0.1348  0.7757  0.0694  -1.7942   0.0000   0.0000   0.0000   0.9522
  -3.500   0.2241   0.01327   0.00585  -0.1349  0.7733  0.0761  -1.6631   0.0000   0.0000   0.0000   0.8632
  -3.250   0.2513   0.01300   0.00565  -0.1350  0.7695  0.0849  -1.5446   0.0000   0.0000   0.0000   0.7963
  -3.000   0.2793   0.01272   0.00541  -0.1351  0.7662  0.0979  -1.4267   0.0000   0.0000   0.0000   0.7413
  -2.750   0.3079   0.01241   0.00516  -0.1353  0.7637  0.1206  -1.3084   0.0000   0.0000   0.0000   0.6957
  -2.500   0.3351   0.01211   0.00506  -0.1355  0.7600  0.1616  -1.1934   0.0000   0.0000   0.0000   0.6593
  -2.250   0.3629   0.01185   0.00498  -0.1357  0.7565  0.2163  -1.0858   0.0000   0.0000   0.0000   0.6279
  -2.000   0.3916   0.01163   0.00488  -0.1359  0.7539  0.2682  -0.9779   0.0000   0.0000   0.0000   0.6004
  -1.750   0.4191   0.01148   0.00488  -0.1360  0.7502  0.3175  -0.8743   0.0000   0.0000   0.0000   0.5771
  -1.500   0.4468   0.01130   0.00486  -0.1362  0.7466  0.3720  -0.7785   0.0000   0.0000   0.0000   0.5566
  -1.250   0.4752   0.01107   0.00480  -0.1364  0.7438  0.4377  -0.7968   0.0000   0.0000   0.0000   0.5381
  -1.000   0.5020   0.01088   0.00486  -0.1363  0.7401  0.5174  -0.8143   0.0000   0.0000   0.0000   0.5222
  -0.750   0.5285   0.01063   0.00491  -0.1360  0.7363  0.6103  -0.8322   0.0000   0.0000   0.0000   0.5076
  -0.500   0.5548   0.01039   0.00492  -0.1355  0.7335  0.7084  -0.8508   0.0000   0.0000   0.0000   0.4940
  -0.250   0.5781   0.01022   0.00501  -0.1343  0.7295  0.7931  -0.8679   0.0000   0.0000   0.0000   0.4816
   0.000   0.5991   0.01000   0.00502  -0.1323  0.7257  0.8878  -0.8845   0.0000   0.0000   0.0000   0.4696
   0.250   0.6443   0.00984   0.00483  -0.1355  0.7229  1.0001  -0.9147   0.0000   0.0000   0.0000   0.4589
   0.500   0.6711   0.00993   0.00488  -0.1355  0.7184  1.0001  -0.9349   0.0000   0.0000   0.0000   0.4500
   0.750   0.6995   0.00997   0.00484  -0.1356  0.7146  1.0001  -0.9569   0.0000   0.0000   0.0000   0.4416
   1.000   0.7284   0.01001   0.00481  -0.1359  0.7112  1.0001  -0.9798   0.0000   0.0000   0.0000   0.4339
   1.250   0.7554   0.01009   0.00487  -0.1358  0.7063  1.0001  -1.0019   0.0000   0.0000   0.0000   0.4268
   1.500   0.7844   0.01012   0.00481  -0.1360  0.7028  1.0001  -1.0262   0.0000   0.0000   0.0000   0.4201
   1.750   0.8116   0.01020   0.00488  -0.1359  0.6980  1.0001  -1.0498   0.0000   0.0000   0.0000   0.4139
   2.000   0.8398   0.01023   0.00487  -0.1360  0.6937  1.0001  -1.0750   0.0000   0.0000   0.0000   0.4080
   2.250   0.8680   0.01029   0.00488  -0.1361  0.6894  1.0001  -1.1009   0.0000   0.0000   0.0000   0.4025
   2.500   0.8953   0.01035   0.00493  -0.1361  0.6842  1.0001  -1.1271   0.0000   0.0000   0.0000   0.3974
   2.750   0.9242   0.01038   0.00491  -0.1362  0.6800  1.0001  -1.1553   0.0000   0.0000   0.0000   0.3925
   3.000   0.9506   0.01045   0.00499  -0.1360  0.6741  1.0001  -1.1828   0.0000   0.0000   0.0000   0.3879
   3.250   0.9794   0.01048   0.00497  -0.1362  0.6696  1.0001  -1.2133   0.0000   0.0000   0.0000   0.3835
   3.500   1.0056   0.01055   0.00507  -0.1359  0.6632  1.0001  -1.2431   0.0000   0.0000   0.0000   0.3793
   3.750   1.0334   0.01060   0.00509  -0.1359  0.6578  1.0001  -1.2754   0.0000   0.0000   0.0000   0.3753
   4.000   1.0602   0.01065   0.00514  -0.1358  0.6514  1.0001  -1.3087   0.0000   0.0000   0.0000   0.3715
   4.250   1.0867   0.01072   0.00523  -0.1355  0.6447  1.0001  -1.3432   0.0000   0.0000   0.0000   0.3679
   4.500   1.1146   0.01076   0.00522  -0.1355  0.6386  1.0001  -1.3811   0.0000   0.0000   0.0000   0.3644
   4.750   1.1398   0.01084   0.00534  -0.1351  0.6305  1.0001  -1.4187   0.0000   0.0000   0.0000   0.3610
   5.000   1.1657   0.01092   0.00545  -0.1348  0.6225  1.0001  -1.4593   0.0000   0.0000   0.0000   0.3577
   5.250   1.1917   0.01101   0.00553  -0.1345  0.6144  1.0001  -1.5033   0.0000   0.0000   0.0000   0.3546
   5.500   1.2175   0.01110   0.00561  -0.1341  0.6058  1.0001  -1.5516   0.0000   0.0000   0.0000   0.3516
   5.750   1.2423   0.01122   0.00574  -0.1336  0.5961  1.0001  -1.6066   0.0000   0.0000   0.0000   0.3486
   6.000   1.2667   0.01136   0.00589  -0.1330  0.5856  1.0001  -1.6768   0.0000   0.0000   0.0000   0.3457
   6.250   1.2906   0.01152   0.00604  -0.1323  0.5744  1.0001  -1.7557   0.0000   0.0000   0.0000   0.3429
   6.500   1.3137   0.01171   0.00624  -0.1316  0.5620  1.0001  -1.8386   0.0000   0.0000   0.0000   0.3401
   6.750   1.3360   0.01192   0.00646  -0.1306  0.5483  1.0001  -1.9253   0.0000   0.0000   0.0000   0.3374
   7.000   1.3574   0.01217   0.00669  -0.1295  0.5336  1.0001  -2.0169   0.0000   0.0000   0.0000   0.3347
   7.250   1.3776   0.01247   0.00696  -0.1282  0.5177  1.0001  -2.1141   0.0000   0.0000   0.0000   0.3320
   7.500   1.3963   0.01283   0.00728  -0.1267  0.5002  1.0001  -2.2155   0.0000   0.0000   0.0000   0.3292
   7.750   1.4136   0.01325   0.00765  -0.1250  0.4821  1.0001  -2.3178   0.0000   0.0000   0.0000   0.3265
   8.000   1.4291   0.01373   0.00807  -0.1230  0.4642  1.0001  -2.4231   0.0000   0.0000   0.0000   0.3238
   8.250   1.4430   0.01423   0.00854  -0.1207  0.4463  1.0001  -2.5263   0.0000   0.0000   0.0000   0.3210
   8.500   1.4543   0.01480   0.00905  -0.1180  0.4293  1.0001  -2.6245   0.0000   0.0000   0.0000   0.3181
   8.750   1.4649   0.01546   0.00966  -0.1153  0.4119  1.0001  -2.7260   0.0000   0.0000   0.0000   0.3152
   9.000   1.4752   0.01618   0.01035  -0.1128  0.3942  1.0001  -2.8300   0.0000   0.0000   0.0000   0.3126
   9.250   1.4842   0.01702   0.01115  -0.1102  0.3763  1.0001  -2.9311   0.0000   0.0000   0.0000   0.3099
   9.500   1.4921   0.01799   0.01207  -0.1076  0.3581  1.0001  -3.0303   0.0000   0.0000   0.0000   0.3074
   9.750   1.4999   0.01904   0.01308  -0.1052  0.3391  1.0001  -3.1298   0.0000   0.0000   0.0000   0.3050
  10.000   1.5067   0.02023   0.01421  -0.1029  0.3198  1.0001  -3.2315   0.0000   0.0000   0.0000   0.3026
  10.250   1.5124   0.02154   0.01546  -0.1005  0.3003  1.0001  -3.3329   0.0000   0.0000   0.0000   0.3004
  10.500   1.5174   0.02297   0.01684  -0.0983  0.2806  1.0001  -3.4324   0.0000   0.0000   0.0000   0.2982
  10.750   1.5215   0.02452   0.01831  -0.0960  0.2608  1.0001  -3.5297   0.0000   0.0000   0.0000   0.2961
  11.000   1.5248   0.02618   0.01990  -0.0938  0.2409  1.0001  -3.6249   0.0000   0.0000   0.0000   0.2940
  11.250   1.5273   0.02794   0.02159  -0.0916  0.2214  1.0001  -3.7179   0.0000   0.0000   0.0000   0.2920
  11.500   1.5290   0.02981   0.02339  -0.0895  0.2024  1.0001  -3.8086   0.0000   0.0000   0.0000   0.2900
  11.750   1.5302   0.03177   0.02527  -0.0874  0.1836  1.0001  -3.9038   0.0000   0.0000   0.0000   0.2881
  12.000   1.5310   0.03379   0.02723  -0.0854  0.1654  1.0001  -3.9976   0.0000   0.0000   0.0000   0.2863
  12.250   1.5311   0.03592   0.02929  -0.0834  0.1480  1.0001  -4.0894   0.0000   0.0000   0.0000   0.2845
  12.500   1.5308   0.03816   0.03147  -0.0816  0.1318  1.0001  -4.1797   0.0000   0.0000   0.0000   0.2828
  12.750   1.5301   0.04049   0.03374  -0.0798  0.1172  1.0001  -4.2683   0.0000   0.0000   0.0000   0.2812
  13.000   1.5295   0.04290   0.03611  -0.0782  0.1043  1.0001  -4.3567   0.0000   0.0000   0.0000   0.2796
  13.250   1.5284   0.04543   0.03860  -0.0766  0.0935  1.0001  -4.4432   0.0000   0.0000   0.0000   0.2781
  13.500   1.5281   0.04795   0.04111  -0.0752  0.0843  1.0001  -4.5321   0.0000   0.0000   0.0000   0.2767
  13.750   1.5270   0.05060   0.04375  -0.0739  0.0770  1.0001  -4.6230   0.0000   0.0000   0.0000   0.2753
  14.000   1.5260   0.05331   0.04647  -0.0728  0.0709  1.0001  -4.7155   0.0000   0.0000   0.0000   0.2741
  14.250   1.5256   0.05605   0.04923  -0.0717  0.0656  1.0001  -4.8097   0.0000   0.0000   0.0000   0.2729
  14.500   1.5252   0.05882   0.05205  -0.0708  0.0612  1.0001  -4.9040   0.0000   0.0000   0.0000   0.2717
  14.750   1.5239   0.06176   0.05504  -0.0699  0.0575  1.0001  -4.9935   0.0000   0.0000   0.0000   0.2706
  15.000   1.5206   0.06497   0.05827  -0.0692  0.0545  1.0001  -5.0748   0.0000   0.0000   0.0000   0.2697
  15.250   1.5211   0.06780   0.06119  -0.0686  0.0513  1.0001  -5.1714   0.0000   0.0000   0.0000   0.2687
  15.500   1.5171   0.07124   0.06466  -0.0680  0.0491  1.0001  -5.2480   0.0000   0.0000   0.0000   0.2679
  15.750   1.5174   0.07421   0.06772  -0.0676  0.0465  1.0001  -5.3433   0.0000   0.0000   0.0000   0.2671
  16.000   1.5117   0.07792   0.07144  -0.0673  0.0447  1.0001  -5.4169   0.0000   0.0000   0.0000   0.2664
  16.250   1.5123   0.08093   0.07458  -0.0670  0.0426  1.0001  -5.5193   0.0000   0.0000   0.0000   0.2657
  16.500   1.5093   0.08440   0.07810  -0.0669  0.0411  1.0001  -5.6064   0.0000   0.0000   0.0000   0.2651
  16.750   1.5055   0.08800   0.08176  -0.0668  0.0397  1.0001  -5.6861   0.0000   0.0000   0.0000   0.2646
  17.000   1.5048   0.09129   0.08515  -0.0669  0.0381  1.0001  -5.7811   0.0000   0.0000   0.0000   0.2640
  17.250   1.5024   0.09479   0.08871  -0.0670  0.0368  1.0001  -5.8700   0.0000   0.0000   0.0000   0.2636
  17.500   1.4989   0.09838   0.09234  -0.0672  0.0357  1.0001  -5.9500   0.0000   0.0000   0.0000   0.2632
  17.750   1.4984   0.10171   0.09579  -0.0675  0.0344  1.0001  -6.0435   0.0000   0.0000   0.0000   0.2629
  18.000   1.4971   0.10513   0.09928  -0.0679  0.0333  1.0001  -6.1357   0.0000   0.0000   0.0000   0.2626
  18.250   1.4951   0.10853   0.10269  -0.0682  0.0323  1.0001  -6.2255   0.0000   0.0000   0.0000   0.2622
  18.500   1.4944   0.11184   0.10610  -0.0686  0.0314  1.0001  -6.3143   0.0000   0.0000   0.0000   0.2619
  18.750   1.4941   0.11521   0.10958  -0.0693  0.0305  1.0001  -6.4058   0.0000   0.0000   0.0000   0.2617
  19.000   1.4940   0.11851   0.11295  -0.0699  0.0296  1.0001  -6.5099   0.0000   0.0000   0.0000   0.2615
  19.250   1.4945   0.12161   0.11607  -0.0706  0.0288  1.0001  -6.6214   0.0000   0.0000   0.0000   0.2613
  19.500   1.4961   0.12437   0.11885  -0.0709  0.0280  1.0001  -6.7358   0.0000   0.0000   0.0000   0.2608
  19.750   1.4945   0.12807   0.12272  -0.0721  0.0273  1.0001  -6.8217   0.0000   0.0000   0.0000   0.2610
  20.000   1.4940   0.13153   0.12629  -0.0732  0.0265  1.0001  -6.9177   0.0000   0.0000   0.0000   0.2611


