xflr5 v6.61

 Calculated polar for: QX0026 v41

 1 1 Reynolds number fixed          Mach number fixed         

 xtrf =   1.000 (top)        1.000 (bottom)
 Mach =   0.000     Re =     0.500 e 6     Ncrit =   9.000

  alpha     CL        CD       CDp       Cm    Top Xtr Bot Xtr   Cpmin    Chinge    XCp    
 ------- -------- --------- --------- -------- ------- ------- -------- --------- ---------
  -5.000  -0.0035   0.01265   0.00573  -0.1184  0.7703  0.0424  -2.5606   0.0000   0.0000   0.0000  -34.0558
  -4.500   0.0524   0.01201   0.00506  -0.1186  0.7643  0.0482  -2.2548   0.0000   0.0000   0.0000   2.5710
  -4.000   0.1087   0.01136   0.00440  -0.1189  0.7593  0.0571  -1.9542   0.0000   0.0000   0.0000   1.3681
  -3.500   0.1652   0.01085   0.00392  -0.1193  0.7530  0.0717  -1.6727   0.0000   0.0000   0.0000   0.9855
  -3.000   0.2220   0.01039   0.00356  -0.1196  0.7466  0.1027  -1.4113   0.0000   0.0000   0.0000   0.7972
  -2.500   0.2788   0.00995   0.00329  -0.1201  0.7399  0.1640  -1.1765   0.0000   0.0000   0.0000   0.6858
  -2.000   0.3352   0.00954   0.00317  -0.1205  0.7330  0.2497  -0.9509   0.0000   0.0000   0.0000   0.6127
  -1.500   0.3917   0.00911   0.00309  -0.1210  0.7261  0.3728  -0.7433   0.0000   0.0000   0.0000   0.5605
  -1.000   0.4479   0.00870   0.00302  -0.1213  0.7189  0.5041  -0.7804   0.0000   0.0000   0.0000   0.5212
  -0.500   0.5024   0.00829   0.00308  -0.1211  0.7110  0.6619  -0.8171   0.0000   0.0000   0.0000   0.4905
   0.000   0.5564   0.00804   0.00312  -0.1205  0.7032  0.7691  -0.8538   0.0000   0.0000   0.0000   0.4653
   0.500   0.6066   0.00778   0.00312  -0.1188  0.6952  0.8757  -0.8958   0.0000   0.0000   0.0000   0.4438
   1.000   0.6759   0.00760   0.00298  -0.1212  0.6865  1.0001  -0.9508   0.0000   0.0000   0.0000   0.4267
   1.500   0.7322   0.00769   0.00297  -0.1215  0.6774  1.0001  -0.9984   0.0000   0.0000   0.0000   0.4126
   2.000   0.7883   0.00781   0.00301  -0.1217  0.6674  1.0001  -1.0534   0.0000   0.0000   0.0000   0.4004
   2.500   0.8442   0.00794   0.00308  -0.1218  0.6561  1.0001  -1.1119   0.0000   0.0000   0.0000   0.3897
   3.000   0.8996   0.00806   0.00318  -0.1218  0.6441  1.0001  -1.1705   0.0000   0.0000   0.0000   0.3802
   3.500   0.9544   0.00818   0.00329  -0.1218  0.6298  1.0001  -1.2305   0.0000   0.0000   0.0000   0.3718
   4.000   1.0088   0.00833   0.00340  -0.1216  0.6137  1.0001  -1.3062   0.0000   0.0000   0.0000   0.3641
   4.500   1.0623   0.00854   0.00359  -0.1213  0.5955  1.0001  -1.3903   0.0000   0.0000   0.0000   0.3572
   5.000   1.1150   0.00881   0.00384  -0.1210  0.5762  1.0001  -1.5226   0.0000   0.0000   0.0000   0.3508
   5.500   1.1664   0.00914   0.00414  -0.1204  0.5527  1.0001  -1.6559   0.0000   0.0000   0.0000   0.3448
   6.000   1.2157   0.00957   0.00450  -0.1194  0.5263  1.0001  -1.7892   0.0000   0.0000   0.0000   0.3392
   6.500   1.2621   0.01014   0.00498  -0.1180  0.4931  1.0001  -1.9212   0.0000   0.0000   0.0000   0.3338
   7.000   1.3045   0.01088   0.00560  -0.1160  0.4524  1.0001  -2.1127   0.0000   0.0000   0.0000   0.3285
   7.500   1.3430   0.01180   0.00637  -0.1134  0.4094  1.0001  -2.3471   0.0000   0.0000   0.0000   0.3233
   8.000   1.3733   0.01302   0.00737  -0.1095  0.3644  1.0001  -2.5679   0.0000   0.0000   0.0000   0.3178
   8.500   1.3973   0.01434   0.00852  -0.1047  0.3179  1.0001  -2.7781   0.0000   0.0000   0.0000   0.3122
   9.000   1.4182   0.01604   0.01006  -0.1001  0.2806  1.0001  -2.9836   0.0000   0.0000   0.0000   0.3071
   9.500   1.4387   0.01800   0.01185  -0.0960  0.2371  1.0001  -3.1919   0.0000   0.0000   0.0000   0.3024
  10.000   1.4572   0.02029   0.01402  -0.0921  0.2047  1.0001  -3.3968   0.0000   0.0000   0.0000   0.2980
  10.500   1.4739   0.02287   0.01643  -0.0885  0.1664  1.0001  -3.6137   0.0000   0.0000   0.0000   0.2939
  11.000   1.4883   0.02573   0.01920  -0.0849  0.1398  1.0001  -3.8413   0.0000   0.0000   0.0000   0.2900
  11.500   1.5021   0.02871   0.02208  -0.0816  0.1091  1.0001  -4.0710   0.0000   0.0000   0.0000   0.2864
  12.000   1.5119   0.03213   0.02543  -0.0782  0.0895  1.0001  -4.2878   0.0000   0.0000   0.0000   0.2828
  12.500   1.5236   0.03546   0.02878  -0.0752  0.0746  1.0001  -4.5145   0.0000   0.0000   0.0000   0.2795
  13.500   1.5421   0.04306   0.03643  -0.0699  0.0532  1.0001  -4.9526   0.0000   0.0000   0.0000   0.2734
  14.000   1.5472   0.04756   0.04100  -0.0676  0.0454  1.0001  -5.1653   0.0000   0.0000   0.0000   0.2707
  14.500   1.5533   0.05213   0.04567  -0.0657  0.0376  1.0001  -5.3871   0.0000   0.0000   0.0000   0.2683
  15.000   1.5532   0.05761   0.05122  -0.0640  0.0328  1.0001  -5.6117   0.0000   0.0000   0.0000   0.2661
  15.500   1.5506   0.06361   0.05737  -0.0627  0.0296  1.0001  -5.8216   0.0000   0.0000   0.0000   0.2642
  16.000   1.5497   0.06964   0.06355  -0.0619  0.0273  1.0001  -6.0434   0.0000   0.0000   0.0000   0.2625
  16.500   1.5432   0.07660   0.07068  -0.0615  0.0259  1.0001  -6.2305   0.0000   0.0000   0.0000   0.2613
  17.000   1.5386   0.08348   0.07775  -0.0615  0.0246  1.0001  -6.4283   0.0000   0.0000   0.0000   0.2602
  17.500   1.5289   0.09126   0.08568  -0.0621  0.0236  1.0001  -6.5957   0.0000   0.0000   0.0000   0.2596
  18.000   1.5181   0.09938   0.09398  -0.0631  0.0227  1.0001  -6.7474   0.0000   0.0000   0.0000   0.2594
  18.500   1.5110   0.10709   0.10191  -0.0644  0.0218  1.0001  -6.9178   0.0000   0.0000   0.0000   0.2592
  19.000   1.5029   0.11511   0.11010  -0.0663  0.0211  1.0001  -7.0777   0.0000   0.0000   0.0000   0.2594
  19.500   1.4941   0.12331   0.11844  -0.0686  0.0204  1.0001  -7.2293   0.0000   0.0000   0.0000   0.2599
  20.000   1.4863   0.13128   0.12654  -0.0710  0.0197  1.0001  -7.3753   0.0000   0.0000   0.0000   0.2605


