xflr5 v6.61

 Calculated polar for: QX0026 thickness=13.65

 1 1 Reynolds number fixed          Mach number fixed         

 xtrf =   1.000 (top)        1.000 (bottom)
 Mach =   0.000     Re =     0.120 e 6     Ncrit =   9.000

  alpha     CL        CD       CDp       Cm    Top Xtr Bot Xtr   Cpmin    Chinge    XCp    
 ------- -------- --------- --------- -------- ------- ------- -------- --------- ---------
  -9.500  -0.1645   0.10567   0.10121  -0.0822  0.9645  0.0921  -1.4777   0.0000   0.0000   0.0000  -0.2879
  -9.250  -0.1657   0.10211   0.09767  -0.0892  0.9590  0.0966  -1.5758   0.0000   0.0000   0.0000  -0.3256
  -9.000  -0.1385   0.09836   0.09389  -0.0898  0.9569  0.0997  -1.4605   0.0000   0.0000   0.0000  -0.4418
  -8.750  -0.1474   0.09466   0.09023  -0.0986  0.9501  0.1044  -1.6103   0.0000   0.0000   0.0000  -0.4583
  -8.500  -0.1177   0.09145   0.08698  -0.0967  0.9477  0.1069  -1.4778   0.0000   0.0000   0.0000  -0.6201
  -8.250  -0.1225   0.08839   0.08394  -0.1020  0.9403  0.1119  -1.5615   0.0000   0.0000   0.0000  -0.6275
  -8.000  -0.1028   0.08497   0.08051  -0.1028  0.9371  0.1143  -1.5039   0.0000   0.0000   0.0000  -0.8027
  -7.750  -0.1009   0.08252   0.07807  -0.1047  0.9304  0.1189  -1.5172   0.0000   0.0000   0.0000  -0.8391
  -7.250  -0.0932   0.07718   0.07275  -0.1078  0.9184  0.1261  -1.5210   0.0000   0.0000   0.0000  -0.9586
  -6.500  -0.0932   0.06960   0.06518  -0.1126  0.8982  0.1405  -1.5557   0.0000   0.0000   0.0000  -1.0043
  -5.750  -0.1249   0.04347   0.03717  -0.1272  0.8742  0.0820  -2.4368   0.0000   0.0000   0.0000  -0.8031
  -5.500  -0.1188   0.04179   0.03536  -0.1248  0.8681  0.0809  -2.4105   0.0000   0.0000   0.0000  -0.8354
  -5.250  -0.0843   0.03799   0.03093  -0.1277  0.8659  0.0802  -2.4030   0.0000   0.0000   0.0000  -1.3134
  -5.000  -0.0742   0.03650   0.02894  -0.1256  0.8599  0.0815  -2.3947   0.0000   0.0000   0.0000  -1.4979
  -4.750  -0.0368   0.03422   0.02617  -0.1279  0.8577  0.0833  -2.3177   0.0000   0.0000   0.0000  -3.3256
  -4.250   0.0135   0.03233   0.02372  -0.1278  0.8495  0.0899  -2.1359   0.0000   0.0000   0.0000   9.9741
  -4.000   0.0554   0.03111   0.02239  -0.1304  0.8477  0.0953  -2.0044   0.0000   0.0000   0.0000   2.6620
  -3.500   0.1070   0.03006   0.02121  -0.1302  0.8393  0.1074  -1.8082   0.0000   0.0000   0.0000   1.4949
  -3.250   0.1169   0.03017   0.02123  -0.1275  0.8326  0.1128  -1.7448   0.0000   0.0000   0.0000   1.3651
  -3.000   0.1580   0.02937   0.02052  -0.1299  0.8306  0.1258  -1.6033   0.0000   0.0000   0.0000   1.0889
  -2.500   0.2094   0.02885   0.02017  -0.1297  0.8217  0.1589  -1.4147   0.0000   0.0000   0.0000   0.8803
  -2.000   0.2621   0.02833   0.02016  -0.1300  0.8126  0.2519  -1.2210   0.0000   0.0000   0.0000   0.7532
  -1.500   0.3139   0.02799   0.02054  -0.1301  0.8033  0.4292  -1.0268   0.0000   0.0000   0.0000   0.6692
  -1.000   0.3588   0.02774   0.02121  -0.1279  0.7937  0.6729  -0.8429   0.0000   0.0000   0.0000   0.6092
  -0.500   0.4033   0.02766   0.02152  -0.1243  0.7838  1.0001  -0.7182   0.0000   0.0000   0.0000   0.5596
   0.000   0.4599   0.02832   0.02181  -0.1250  0.7737  1.0001  -0.7560   0.0000   0.0000   0.0000   0.5219
   0.250   0.4732   0.02918   0.02256  -0.1233  0.7656  1.0001  -0.7651   0.0000   0.0000   0.0000   0.5102
   0.500   0.5020   0.02948   0.02272  -0.1236  0.7607  1.0001  -0.7857   0.0000   0.0000   0.0000   0.4953
   0.750   0.5286   0.02981   0.02293  -0.1235  0.7550  1.0001  -0.8052   0.0000   0.0000   0.0000   0.4824
   1.000   0.5670   0.02966   0.02266  -0.1249  0.7522  1.0001  -0.8342   0.0000   0.0000   0.0000   0.4685
   1.250   0.5847   0.03034   0.02327  -0.1237  0.7445  1.0001  -0.8484   0.0000   0.0000   0.0000   0.4594
   1.500   0.6270   0.02989   0.02271  -0.1254  0.7427  1.0001  -0.8819   0.0000   0.0000   0.0000   0.4473
   1.750   0.6413   0.03076   0.02353  -0.1238  0.7339  1.0001  -0.8943   0.0000   0.0000   0.0000   0.4401
   2.250   0.6980   0.03105   0.02371  -0.1238  0.7234  1.0001  -0.9434   0.0000   0.0000   0.0000   0.4235
   2.750   0.7302   0.03256   0.02516  -0.1209  0.7064  1.0001  -0.9755   0.0000   0.0000   0.0000   0.4111
   3.000   0.7697   0.03201   0.02458  -0.1220  0.7037  1.0001  -1.0120   0.0000   0.0000   0.0000   0.4037
   3.250   0.8128   0.03118   0.02371  -0.1234  0.7023  1.0001  -1.0529   0.0000   0.0000   0.0000   0.3966
   3.750   0.8710   0.03100   0.02351  -0.1231  0.6917  1.0001  -1.1146   0.0000   0.0000   0.0000   0.3855
   4.250   0.9305   0.03061   0.02314  -0.1228  0.6811  1.0001  -1.1824   0.0000   0.0000   0.0000   0.3755
   4.500   0.9466   0.03122   0.02376  -0.1213  0.6719  1.0001  -1.2059   0.0000   0.0000   0.0000   0.3712
   4.750   0.9888   0.03019   0.02274  -0.1224  0.6698  1.0001  -1.2554   0.0000   0.0000   0.0000   0.3666
   5.000   1.0084   0.03050   0.02309  -0.1211  0.6613  1.0001  -1.2853   0.0000   0.0000   0.0000   0.3625
   5.250   1.0534   0.02925   0.02185  -0.1225  0.6595  1.0001  -1.3424   0.0000   0.0000   0.0000   0.3584
   5.500   1.0728   0.02951   0.02216  -0.1212  0.6507  1.0001  -1.3766   0.0000   0.0000   0.0000   0.3547
   6.000   1.1398   0.02827   0.02100  -0.1215  0.6396  1.0001  -1.4851   0.0000   0.0000   0.0000   0.3477
   6.500   1.2068   0.02699   0.01981  -0.1219  0.6272  1.0001  -1.6315   0.0000   0.0000   0.0000   0.3413
   7.000   1.2578   0.02651   0.01946  -0.1203  0.6093  1.0001  -1.7961   0.0000   0.0000   0.0000   0.3352
   7.250   1.2856   0.02613   0.01914  -0.1197  0.6003  1.0001  -1.8922   0.0000   0.0000   0.0000   0.3323
   7.500   1.3165   0.02558   0.01863  -0.1196  0.5912  1.0001  -2.0028   0.0000   0.0000   0.0000   0.3296
   7.750   1.3469   0.02506   0.01816  -0.1193  0.5813  1.0001  -2.1221   0.0000   0.0000   0.0000   0.3270
   8.000   1.3734   0.02473   0.01788  -0.1186  0.5699  1.0001  -2.2420   0.0000   0.0000   0.0000   0.3244
   8.250   1.3984   0.02446   0.01764  -0.1176  0.5573  1.0001  -2.3634   0.0000   0.0000   0.0000   0.3217
   8.500   1.4244   0.02415   0.01735  -0.1168  0.5438  1.0001  -2.4965   0.0000   0.0000   0.0000   0.3192
   8.750   1.4469   0.02401   0.01722  -0.1155  0.5289  1.0001  -2.6230   0.0000   0.0000   0.0000   0.3166
   9.000   1.4620   0.02420   0.01743  -0.1132  0.5124  1.0001  -2.7345   0.0000   0.0000   0.0000   0.3138
   9.250   1.4796   0.02432   0.01755  -0.1112  0.4956  1.0001  -2.8593   0.0000   0.0000   0.0000   0.3111
   9.500   1.4911   0.02468   0.01789  -0.1085  0.4782  1.0001  -2.9684   0.0000   0.0000   0.0000   0.3082
   9.750   1.5002   0.02523   0.01844  -0.1055  0.4605  1.0001  -3.0714   0.0000   0.0000   0.0000   0.3054
  10.000   1.5112   0.02578   0.01894  -0.1029  0.4425  1.0001  -3.1814   0.0000   0.0000   0.0000   0.3027
  10.250   1.5152   0.02668   0.01984  -0.0996  0.4242  1.0001  -3.2763   0.0000   0.0000   0.0000   0.2999
  10.500   1.5193   0.02767   0.02084  -0.0965  0.4057  1.0001  -3.3724   0.0000   0.0000   0.0000   0.2972
  10.750   1.5230   0.02876   0.02189  -0.0935  0.3871  1.0001  -3.4682   0.0000   0.0000   0.0000   0.2946
  11.000   1.5250   0.03001   0.02310  -0.0906  0.3683  1.0001  -3.5591   0.0000   0.0000   0.0000   0.2921
  11.250   1.5241   0.03153   0.02462  -0.0875  0.3490  1.0001  -3.6396   0.0000   0.0000   0.0000   0.2897
  11.500   1.5225   0.03320   0.02627  -0.0846  0.3295  1.0001  -3.7181   0.0000   0.0000   0.0000   0.2874
  11.750   1.5199   0.03504   0.02808  -0.0819  0.3097  1.0001  -3.7928   0.0000   0.0000   0.0000   0.2851
  12.000   1.5160   0.03707   0.03008  -0.0792  0.2897  1.0001  -3.8674   0.0000   0.0000   0.0000   0.2830
  12.250   1.5109   0.03931   0.03226  -0.0766  0.2696  1.0001  -3.9375   0.0000   0.0000   0.0000   0.2810
  12.500   1.5045   0.04174   0.03463  -0.0742  0.2495  1.0001  -4.0023   0.0000   0.0000   0.0000   0.2790
  12.750   1.4971   0.04439   0.03720  -0.0719  0.2297  1.0001  -4.0619   0.0000   0.0000   0.0000   0.2772
  13.000   1.4889   0.04724   0.03995  -0.0697  0.2103  1.0001  -4.1175   0.0000   0.0000   0.0000   0.2755
  13.250   1.4807   0.05027   0.04291  -0.0678  0.1915  1.0001  -4.1703   0.0000   0.0000   0.0000   0.2739
  13.500   1.4727   0.05342   0.04597  -0.0660  0.1741  1.0001  -4.2221   0.0000   0.0000   0.0000   0.2724
  13.750   1.4654   0.05662   0.04906  -0.0644  0.1588  1.0001  -4.2746   0.0000   0.0000   0.0000   0.2710
  14.000   1.4594   0.05978   0.05215  -0.0631  0.1450  1.0001  -4.3300   0.0000   0.0000   0.0000   0.2697
  14.250   1.4550   0.06287   0.05519  -0.0618  0.1328  1.0001  -4.3903   0.0000   0.0000   0.0000   0.2685
  14.500   1.4521   0.06582   0.05806  -0.0607  0.1227  1.0001  -4.4626   0.0000   0.0000   0.0000   0.2672
  14.750   1.4513   0.06858   0.06076  -0.0596  0.1138  1.0001  -4.5417   0.0000   0.0000   0.0000   0.2660
  15.000   1.4515   0.07128   0.06346  -0.0586  0.1058  1.0001  -4.6231   0.0000   0.0000   0.0000   0.2648
  15.250   1.4533   0.07381   0.06598  -0.0576  0.0988  1.0001  -4.7112   0.0000   0.0000   0.0000   0.2635
  15.500   1.4571   0.07613   0.06828  -0.0567  0.0927  1.0001  -4.8074   0.0000   0.0000   0.0000   0.2623
  15.750   1.4628   0.07821   0.07033  -0.0557  0.0872  1.0001  -4.9129   0.0000   0.0000   0.0000   0.2609
  16.000   1.4714   0.07993   0.07197  -0.0547  0.0821  1.0001  -5.0327   0.0000   0.0000   0.0000   0.2595
  16.250   1.4737   0.08264   0.07486  -0.0541  0.0779  1.0001  -5.1206   0.0000   0.0000   0.0000   0.2585
  16.500   1.4816   0.08455   0.07681  -0.0532  0.0740  1.0001  -5.2421   0.0000   0.0000   0.0000   0.2572
  16.750   1.4958   0.08565   0.07780  -0.0521  0.0701  1.0001  -5.4027   0.0000   0.0000   0.0000   0.2556
  17.000   1.4946   0.08889   0.08130  -0.0518  0.0673  1.0001  -5.4702   0.0000   0.0000   0.0000   0.2548
  17.250   1.5107   0.08991   0.08225  -0.0507  0.0643  1.0001  -5.6358   0.0000   0.0000   0.0000   0.2533
  17.500   1.5087   0.09331   0.08593  -0.0505  0.0622  1.0001  -5.6948   0.0000   0.0000   0.0000   0.2526
  17.750   1.5284   0.09397   0.08647  -0.0495  0.0594  1.0001  -5.8856   0.0000   0.0000   0.0000   0.2510
  18.000   1.5166   0.09860   0.09147  -0.0499  0.0581  1.0001  -5.8890   0.0000   0.0000   0.0000   0.2509
  18.250   1.5142   0.10207   0.09515  -0.0500  0.0564  1.0001  -5.9523   0.0000   0.0000   0.0000   0.2505
  18.500   1.5357   0.10263   0.09558  -0.0489  0.0543  1.0001  -6.1669   0.0000   0.0000   0.0000   0.2488
  18.750   1.5186   0.10808   0.10141  -0.0500  0.0537  1.0001  -6.1380   0.0000   0.0000   0.0000   0.2492
  19.000   1.5023   0.11368   0.10735  -0.0515  0.0530  1.0001  -6.1093   0.0000   0.0000   0.0000   0.2500
  19.250   1.4862   0.11945   0.11341  -0.0534  0.0524  1.0001  -6.0792   0.0000   0.0000   0.0000   0.2510
  19.500   1.4706   0.12535   0.11958  -0.0557  0.0518  1.0001  -6.0481   0.0000   0.0000   0.0000   0.2523
  19.750   1.4567   0.13117   0.12563  -0.0582  0.0512  1.0001  -6.0243   0.0000   0.0000   0.0000   0.2537
  20.000   1.4777   0.13109   0.12542  -0.0570  0.0493  1.0001  -6.2513   0.0000   0.0000   0.0000   0.2518


