xflr5 v6.61

 Calculated polar for: QX0026 thickness=13.65

 1 1 Reynolds number fixed          Mach number fixed         

 xtrf =   1.000 (top)        1.000 (bottom)
 Mach =   0.000     Re =     0.900 e 6     Ncrit =   9.000

  alpha     CL        CD       CDp       Cm    Top Xtr Bot Xtr   Cpmin    Chinge    XCp    
 ------- -------- --------- --------- -------- ------- ------- -------- --------- ---------
  -9.750  -0.4671   0.01817   0.01313  -0.1290  0.7929  0.0187  -6.5965   0.0000   0.0000   0.0000  -0.0448
  -9.500  -0.4415   0.01752   0.01237  -0.1291  0.7896  0.0191  -6.3636   0.0000   0.0000   0.0000  -0.0614
  -9.250  -0.4151   0.01700   0.01172  -0.1292  0.7863  0.0195  -6.1261   0.0000   0.0000   0.0000  -0.0805
  -9.000  -0.3902   0.01614   0.01070  -0.1293  0.7836  0.0200  -5.9152   0.0000   0.0000   0.0000  -0.1010
  -8.750  -0.3650   0.01530   0.00980  -0.1294  0.7806  0.0206  -5.6963   0.0000   0.0000   0.0000  -0.1246
  -8.500  -0.3382   0.01484   0.00930  -0.1295  0.7774  0.0211  -5.4569   0.0000   0.0000   0.0000  -0.1538
  -8.250  -0.3111   0.01442   0.00882  -0.1296  0.7746  0.0216  -5.2221   0.0000   0.0000   0.0000  -0.1883
  -8.000  -0.2839   0.01401   0.00832  -0.1297  0.7719  0.0222  -4.9942   0.0000   0.0000   0.0000  -0.2297
  -7.750  -0.2564   0.01360   0.00784  -0.1299  0.7689  0.0228  -4.7703   0.0000   0.0000   0.0000  -0.2805
  -7.500  -0.2285   0.01329   0.00744  -0.1300  0.7661  0.0233  -4.5458   0.0000   0.0000   0.0000  -0.3445
  -7.250  -0.2024   0.01257   0.00665  -0.1301  0.7635  0.0242  -4.3457   0.0000   0.0000   0.0000  -0.4204
  -7.000  -0.1744   0.01228   0.00635  -0.1302  0.7607  0.0251  -4.1362   0.0000   0.0000   0.0000  -0.5274
  -6.750  -0.1462   0.01201   0.00604  -0.1304  0.7579  0.0260  -3.9333   0.0000   0.0000   0.0000  -0.6765
  -6.500  -0.1180   0.01176   0.00572  -0.1306  0.7552  0.0269  -3.7379   0.0000   0.0000   0.0000  -0.8972
  -6.250  -0.0905   0.01131   0.00520  -0.1307  0.7528  0.0279  -3.5552   0.0000   0.0000   0.0000  -1.2446
  -6.000  -0.0623   0.01102   0.00492  -0.1309  0.7499  0.0290  -3.3617   0.0000   0.0000   0.0000  -1.9200
  -5.750  -0.0339   0.01079   0.00466  -0.1310  0.7471  0.0303  -3.1724   0.0000   0.0000   0.0000  -3.7394
  -5.500  -0.0053   0.01061   0.00441  -0.1312  0.7445  0.0314  -2.9866   0.0000   0.0000   0.0000  -25.3810
  -5.250   0.0228   0.01029   0.00408  -0.1314  0.7420  0.0333  -2.8068   0.0000   0.0000   0.0000   6.1743
  -5.000   0.0515   0.01010   0.00388  -0.1316  0.7391  0.0351  -2.6325   0.0000   0.0000   0.0000   2.8749
  -4.750   0.0799   0.00984   0.00359  -0.1318  0.7362  0.0370  -2.4750   0.0000   0.0000   0.0000   1.9400
  -4.500   0.1086   0.00967   0.00340  -0.1320  0.7337  0.0392  -2.3148   0.0000   0.0000   0.0000   1.4937
  -4.250   0.1373   0.00948   0.00319  -0.1322  0.7309  0.0419  -2.1600   0.0000   0.0000   0.0000   1.2340
  -4.000   0.1661   0.00932   0.00303  -0.1324  0.7278  0.0450  -2.0051   0.0000   0.0000   0.0000   1.0636
  -3.750   0.1948   0.00913   0.00284  -0.1326  0.7250  0.0487  -1.8555   0.0000   0.0000   0.0000   0.9438
  -3.500   0.2236   0.00900   0.00268  -0.1328  0.7224  0.0532  -1.7136   0.0000   0.0000   0.0000   0.8544
  -3.250   0.2524   0.00883   0.00254  -0.1331  0.7192  0.0590  -1.5811   0.0000   0.0000   0.0000   0.7856
  -3.000   0.2812   0.00867   0.00241  -0.1333  0.7161  0.0671  -1.4511   0.0000   0.0000   0.0000   0.7308
  -2.750   0.3100   0.00852   0.00229  -0.1335  0.7133  0.0787  -1.3240   0.0000   0.0000   0.0000   0.6862
  -2.500   0.3387   0.00836   0.00219  -0.1338  0.7103  0.0980  -1.1995   0.0000   0.0000   0.0000   0.6493
  -2.250   0.3674   0.00817   0.00211  -0.1340  0.7070  0.1260  -1.0862   0.0000   0.0000   0.0000   0.6183
  -2.000   0.3960   0.00800   0.00203  -0.1343  0.7040  0.1609  -0.9766   0.0000   0.0000   0.0000   0.5918
  -1.750   0.4248   0.00786   0.00199  -0.1346  0.7011  0.1985  -0.8693   0.0000   0.0000   0.0000   0.5688
  -1.500   0.4535   0.00771   0.00196  -0.1349  0.6976  0.2354  -0.7898   0.0000   0.0000   0.0000   0.5487
  -1.250   0.4822   0.00758   0.00192  -0.1351  0.6943  0.2718  -0.8078   0.0000   0.0000   0.0000   0.5310
  -1.000   0.5109   0.00748   0.00190  -0.1354  0.6913  0.3113  -0.8263   0.0000   0.0000   0.0000   0.5152
  -0.750   0.5396   0.00734   0.00190  -0.1356  0.6877  0.3562  -0.8452   0.0000   0.0000   0.0000   0.5012
  -0.500   0.5682   0.00719   0.00190  -0.1359  0.6842  0.4090  -0.8645   0.0000   0.0000   0.0000   0.4886
  -0.250   0.5966   0.00706   0.00190  -0.1362  0.6810  0.4727  -0.8844   0.0000   0.0000   0.0000   0.4771
   0.000   0.6249   0.00687   0.00194  -0.1364  0.6772  0.5505  -0.9046   0.0000   0.0000   0.0000   0.4668
   0.250   0.6528   0.00667   0.00198  -0.1365  0.6734  0.6404  -0.9252   0.0000   0.0000   0.0000   0.4572
   0.500   0.6805   0.00656   0.00203  -0.1364  0.6699  0.7128  -0.9463   0.0000   0.0000   0.0000   0.4483
   0.750   0.7078   0.00643   0.00208  -0.1363  0.6657  0.7738  -0.9676   0.0000   0.0000   0.0000   0.4400
   1.250   0.7563   0.00610   0.00216  -0.1342  0.6578  0.9497  -1.0089   0.0000   0.0000   0.0000   0.4243
   1.500   0.7935   0.00609   0.00214  -0.1363  0.6531  1.0001  -1.0377   0.0000   0.0000   0.0000   0.4183
   1.750   0.8217   0.00617   0.00216  -0.1364  0.6489  1.0001  -1.0621   0.0000   0.0000   0.0000   0.4122
   2.000   0.8501   0.00620   0.00220  -0.1366  0.6438  1.0001  -1.0873   0.0000   0.0000   0.0000   0.4065
   2.250   0.8782   0.00628   0.00223  -0.1367  0.6391  1.0001  -1.1132   0.0000   0.0000   0.0000   0.4012
   2.500   0.9065   0.00633   0.00227  -0.1368  0.6335  1.0001  -1.1400   0.0000   0.0000   0.0000   0.3962
   2.750   0.9343   0.00642   0.00232  -0.1369  0.6282  1.0001  -1.1676   0.0000   0.0000   0.0000   0.3914
   3.000   0.9624   0.00647   0.00238  -0.1370  0.6220  1.0001  -1.1963   0.0000   0.0000   0.0000   0.3870
   3.250   0.9901   0.00657   0.00243  -0.1371  0.6161  1.0001  -1.2260   0.0000   0.0000   0.0000   0.3827
   3.500   1.0178   0.00664   0.00251  -0.1371  0.6090  1.0001  -1.2571   0.0000   0.0000   0.0000   0.3787
   3.750   1.0454   0.00674   0.00258  -0.1371  0.6018  1.0001  -1.2894   0.0000   0.0000   0.0000   0.3748
   4.000   1.0725   0.00685   0.00266  -0.1371  0.5943  1.0001  -1.3231   0.0000   0.0000   0.0000   0.3711
   4.250   1.0996   0.00696   0.00276  -0.1370  0.5858  1.0001  -1.3584   0.0000   0.0000   0.0000   0.3676
   4.500   1.1265   0.00708   0.00286  -0.1370  0.5765  1.0001  -1.3957   0.0000   0.0000   0.0000   0.3643
   4.750   1.1531   0.00722   0.00297  -0.1368  0.5664  1.0001  -1.4350   0.0000   0.0000   0.0000   0.3610
   5.000   1.1793   0.00737   0.00310  -0.1366  0.5552  1.0001  -1.4765   0.0000   0.0000   0.0000   0.3579
   5.250   1.2049   0.00756   0.00325  -0.1363  0.5428  1.0001  -1.5208   0.0000   0.0000   0.0000   0.3548
   5.500   1.2300   0.00776   0.00341  -0.1359  0.5292  1.0001  -1.5695   0.0000   0.0000   0.0000   0.3519
   5.750   1.2547   0.00799   0.00359  -0.1355  0.5138  1.0001  -1.6276   0.0000   0.0000   0.0000   0.3490
   6.000   1.2781   0.00828   0.00381  -0.1348  0.4975  1.0001  -1.7009   0.0000   0.0000   0.0000   0.3461
   6.250   1.3013   0.00858   0.00404  -0.1341  0.4795  1.0001  -1.7805   0.0000   0.0000   0.0000   0.3434
   6.500   1.3234   0.00893   0.00432  -0.1333  0.4605  1.0001  -1.8635   0.0000   0.0000   0.0000   0.3406
   6.750   1.3445   0.00931   0.00462  -0.1322  0.4406  1.0001  -1.9499   0.0000   0.0000   0.0000   0.3379
   7.000   1.3650   0.00972   0.00494  -0.1311  0.4210  1.0001  -2.0412   0.0000   0.0000   0.0000   0.3352
   7.250   1.3854   0.01012   0.00527  -0.1300  0.4021  1.0001  -2.1408   0.0000   0.0000   0.0000   0.3326
   7.500   1.4050   0.01054   0.00562  -0.1287  0.3837  1.0001  -2.2470   0.0000   0.0000   0.0000   0.3301
   7.750   1.4233   0.01100   0.00600  -0.1272  0.3653  1.0001  -2.3548   0.0000   0.0000   0.0000   0.3275
   8.000   1.4387   0.01150   0.00642  -0.1252  0.3467  1.0001  -2.4611   0.0000   0.0000   0.0000   0.3247
   8.250   1.4530   0.01203   0.00688  -0.1231  0.3277  1.0001  -2.5661   0.0000   0.0000   0.0000   0.3220
   8.500   1.4664   0.01264   0.00741  -0.1209  0.3079  1.0001  -2.6731   0.0000   0.0000   0.0000   0.3193
   8.750   1.4786   0.01335   0.00802  -0.1186  0.2877  1.0001  -2.7819   0.0000   0.0000   0.0000   0.3167
   9.000   1.4899   0.01413   0.00872  -0.1163  0.2675  1.0001  -2.8894   0.0000   0.0000   0.0000   0.3141
   9.250   1.5002   0.01502   0.00951  -0.1140  0.2473  1.0001  -2.9953   0.0000   0.0000   0.0000   0.3116
   9.500   1.5103   0.01598   0.01038  -0.1118  0.2274  1.0001  -3.1017   0.0000   0.0000   0.0000   0.3092
   9.750   1.5197   0.01703   0.01134  -0.1096  0.2078  1.0001  -3.2116   0.0000   0.0000   0.0000   0.3069
  10.000   1.5283   0.01817   0.01239  -0.1075  0.1886  1.0001  -3.3223   0.0000   0.0000   0.0000   0.3047
  10.250   1.5362   0.01940   0.01354  -0.1054  0.1702  1.0001  -3.4320   0.0000   0.0000   0.0000   0.3025
  10.500   1.5438   0.02069   0.01474  -0.1033  0.1533  1.0001  -3.5417   0.0000   0.0000   0.0000   0.3004
  10.750   1.5509   0.02205   0.01603  -0.1013  0.1371  1.0001  -3.6507   0.0000   0.0000   0.0000   0.2983
  11.000   1.5573   0.02349   0.01739  -0.0993  0.1219  1.0001  -3.7581   0.0000   0.0000   0.0000   0.2963
  11.500   1.5698   0.02646   0.02025  -0.0955  0.0956  1.0001  -3.9846   0.0000   0.0000   0.0000   0.2924
  11.750   1.5762   0.02797   0.02172  -0.0937  0.0852  1.0001  -4.1021   0.0000   0.0000   0.0000   0.2905
  12.250   1.5884   0.03111   0.02480  -0.0903  0.0683  1.0001  -4.3384   0.0000   0.0000   0.0000   0.2869
  12.500   1.5942   0.03272   0.02641  -0.0886  0.0615  1.0001  -4.4569   0.0000   0.0000   0.0000   0.2852
  12.750   1.6001   0.03438   0.02806  -0.0871  0.0557  1.0001  -4.5764   0.0000   0.0000   0.0000   0.2835
  13.000   1.6062   0.03606   0.02975  -0.0856  0.0509  1.0001  -4.7010   0.0000   0.0000   0.0000   0.2819
  13.250   1.6126   0.03776   0.03147  -0.0843  0.0468  1.0001  -4.8325   0.0000   0.0000   0.0000   0.2803
  13.500   1.6185   0.03953   0.03326  -0.0829  0.0434  1.0001  -4.9629   0.0000   0.0000   0.0000   0.2788
  14.000   1.6298   0.04323   0.03702  -0.0805  0.0377  1.0001  -5.2250   0.0000   0.0000   0.0000   0.2759
  14.250   1.6346   0.04522   0.03904  -0.0793  0.0353  1.0001  -5.3537   0.0000   0.0000   0.0000   0.2745
  14.500   1.6396   0.04724   0.04108  -0.0783  0.0331  1.0001  -5.4843   0.0000   0.0000   0.0000   0.2731
  14.750   1.6437   0.04935   0.04324  -0.0772  0.0313  1.0001  -5.6113   0.0000   0.0000   0.0000   0.2718
  15.000   1.6481   0.05147   0.04542  -0.0763  0.0296  1.0001  -5.7471   0.0000   0.0000   0.0000   0.2706
  15.250   1.6495   0.05395   0.04793  -0.0753  0.0281  1.0001  -5.8707   0.0000   0.0000   0.0000   0.2693
  15.500   1.6547   0.05608   0.05013  -0.0745  0.0269  1.0001  -6.0144   0.0000   0.0000   0.0000   0.2682
  15.750   1.6571   0.05854   0.05264  -0.0737  0.0257  1.0001  -6.1451   0.0000   0.0000   0.0000   0.2670
  16.000   1.6564   0.06139   0.05554  -0.0729  0.0246  1.0001  -6.2589   0.0000   0.0000   0.0000   0.2660
  16.250   1.6604   0.06372   0.05795  -0.0723  0.0236  1.0001  -6.3991   0.0000   0.0000   0.0000   0.2649
  16.500   1.6620   0.06637   0.06066  -0.0717  0.0227  1.0001  -6.5274   0.0000   0.0000   0.0000   0.2640
  16.750   1.6607   0.06940   0.06375  -0.0712  0.0219  1.0001  -6.6403   0.0000   0.0000   0.0000   0.2631
  17.000   1.6584   0.07262   0.06704  -0.0708  0.0211  1.0001  -6.7458   0.0000   0.0000   0.0000   0.2623
  17.250   1.6598   0.07543   0.06993  -0.0705  0.0205  1.0001  -6.8730   0.0000   0.0000   0.0000   0.2614
  17.500   1.6596   0.07847   0.07305  -0.0703  0.0199  1.0001  -6.9918   0.0000   0.0000   0.0000   0.2607
  17.750   1.6574   0.08176   0.07641  -0.0701  0.0193  1.0001  -7.1039   0.0000   0.0000   0.0000   0.2600
  18.000   1.6526   0.08544   0.08016  -0.0700  0.0188  1.0001  -7.2028   0.0000   0.0000   0.0000   0.2595
  18.250   1.6432   0.08982   0.08462  -0.0702  0.0183  1.0001  -7.2698   0.0000   0.0000   0.0000   0.2592
  18.500   1.6422   0.09313   0.08803  -0.0703  0.0179  1.0001  -7.3905   0.0000   0.0000   0.0000   0.2587
  18.750   1.6399   0.09662   0.09161  -0.0706  0.0175  1.0001  -7.5036   0.0000   0.0000   0.0000   0.2583
  19.000   1.6368   0.10027   0.09535  -0.0710  0.0170  1.0001  -7.6106   0.0000   0.0000   0.0000   0.2579
  19.250   1.6326   0.10406   0.09922  -0.0715  0.0166  1.0001  -7.7105   0.0000   0.0000   0.0000   0.2577
  19.500   1.6267   0.10815   0.10339  -0.0722  0.0162  1.0001  -7.7972   0.0000   0.0000   0.0000   0.2576
  19.750   1.6184   0.11265   0.10797  -0.0731  0.0159  1.0001  -7.8652   0.0000   0.0000   0.0000   0.2577
  20.000   1.6070   0.11768   0.11309  -0.0743  0.0155  1.0001  -7.9066   0.0000   0.0000   0.0000   0.2581


