xflr5 v6.61

 Calculated polar for: QX0026 thickness=13.65

 1 1 Reynolds number fixed          Mach number fixed         

 xtrf =   1.000 (top)        1.000 (bottom)
 Mach =   0.000     Re =     0.580 e 6     Ncrit =   9.000

  alpha     CL        CD       CDp       Cm    Top Xtr Bot Xtr   Cpmin    Chinge    XCp    
 ------- -------- --------- --------- -------- ------- ------- -------- --------- ---------
 -10.000  -0.4419   0.03083   0.02692  -0.1283  0.8221  0.0213  -5.9161   0.0000   0.0000   0.0000  -0.0598
  -9.750  -0.4297   0.02776   0.02348  -0.1295  0.8181  0.0217  -5.8622   0.0000   0.0000   0.0000  -0.0709
  -9.500  -0.4128   0.02539   0.02077  -0.1302  0.8143  0.0223  -5.7718   0.0000   0.0000   0.0000  -0.0849
  -9.250  -0.3932   0.02347   0.01846  -0.1305  0.8112  0.0229  -5.6593   0.0000   0.0000   0.0000  -0.1017
  -9.000  -0.3710   0.02205   0.01670  -0.1307  0.8073  0.0234  -5.5149   0.0000   0.0000   0.0000  -0.1226
  -8.750  -0.3497   0.02021   0.01471  -0.1309  0.8040  0.0239  -5.3616   0.0000   0.0000   0.0000  -0.1450
  -8.500  -0.3244   0.01947   0.01387  -0.1310  0.8012  0.0245  -5.1486   0.0000   0.0000   0.0000  -0.1752
  -8.250  -0.2988   0.01873   0.01303  -0.1311  0.7977  0.0251  -4.9434   0.0000   0.0000   0.0000  -0.2111
  -8.000  -0.2730   0.01797   0.01214  -0.1312  0.7946  0.0258  -4.7473   0.0000   0.0000   0.0000  -0.2540
  -7.750  -0.2468   0.01722   0.01120  -0.1313  0.7920  0.0265  -4.5592   0.0000   0.0000   0.0000  -0.3065
  -7.500  -0.2199   0.01668   0.01048  -0.1313  0.7887  0.0272  -4.3646   0.0000   0.0000   0.0000  -0.3738
  -7.250  -0.1944   0.01570   0.00947  -0.1314  0.7857  0.0282  -4.1734   0.0000   0.0000   0.0000  -0.4547
  -7.000  -0.1671   0.01531   0.00902  -0.1315  0.7831  0.0292  -3.9626   0.0000   0.0000   0.0000  -0.5693
  -6.750  -0.1398   0.01484   0.00848  -0.1316  0.7800  0.0302  -3.7846   0.0000   0.0000   0.0000  -0.7281
  -6.500  -0.1122   0.01441   0.00793  -0.1317  0.7770  0.0312  -3.6123   0.0000   0.0000   0.0000  -0.9675
  -6.250  -0.0854   0.01371   0.00718  -0.1317  0.7744  0.0323  -3.4448   0.0000   0.0000   0.0000  -1.3463
  -6.000  -0.0577   0.01336   0.00681  -0.1319  0.7717  0.0336  -3.2617   0.0000   0.0000   0.0000  -2.1107
  -5.750  -0.0298   0.01305   0.00645  -0.1320  0.7686  0.0351  -3.0847   0.0000   0.0000   0.0000  -4.3221
  -5.500  -0.0022   0.01260   0.00595  -0.1321  0.7658  0.0368  -2.9154   0.0000   0.0000   0.0000  -61.6229
  -5.250   0.0259   0.01232   0.00563  -0.1323  0.7634  0.0385  -2.7389   0.0000   0.0000   0.0000   5.4953
  -5.000   0.0541   0.01206   0.00533  -0.1324  0.7603  0.0404  -2.5736   0.0000   0.0000   0.0000   2.7621
  -4.750   0.0818   0.01166   0.00494  -0.1325  0.7573  0.0426  -2.4240   0.0000   0.0000   0.0000   1.9104
  -4.500   0.1104   0.01147   0.00470  -0.1327  0.7547  0.0453  -2.2709   0.0000   0.0000   0.0000   1.4802
  -4.250   0.1386   0.01118   0.00440  -0.1329  0.7521  0.0484  -2.1223   0.0000   0.0000   0.0000   1.2299
  -4.000   0.1669   0.01093   0.00415  -0.1330  0.7488  0.0519  -1.9778   0.0000   0.0000   0.0000   1.0637
  -3.750   0.1954   0.01072   0.00393  -0.1332  0.7459  0.0563  -1.8320   0.0000   0.0000   0.0000   0.9448
  -3.500   0.2241   0.01051   0.00370  -0.1334  0.7434  0.0618  -1.6934   0.0000   0.0000   0.0000   0.8559
  -3.250   0.2524   0.01031   0.00352  -0.1336  0.7402  0.0688  -1.5666   0.0000   0.0000   0.0000   0.7878
  -3.000   0.2809   0.01009   0.00335  -0.1338  0.7369  0.0787  -1.4411   0.0000   0.0000   0.0000   0.7333
  -2.750   0.3096   0.00988   0.00318  -0.1340  0.7341  0.0950  -1.3170   0.0000   0.0000   0.0000   0.6886
  -2.500   0.3380   0.00966   0.00306  -0.1342  0.7312  0.1225  -1.1954   0.0000   0.0000   0.0000   0.6518
  -2.250   0.3662   0.00943   0.00297  -0.1345  0.7277  0.1629  -1.0847   0.0000   0.0000   0.0000   0.6209
  -2.000   0.3948   0.00923   0.00290  -0.1347  0.7247  0.2062  -0.9760   0.0000   0.0000   0.0000   0.5941
  -1.750   0.4235   0.00909   0.00284  -0.1350  0.7220  0.2481  -0.8690   0.0000   0.0000   0.0000   0.5709
  -1.500   0.4517   0.00893   0.00283  -0.1352  0.7183  0.2894  -0.7868   0.0000   0.0000   0.0000   0.5508
  -1.250   0.4803   0.00877   0.00279  -0.1355  0.7150  0.3346  -0.8048   0.0000   0.0000   0.0000   0.5330
  -1.000   0.5090   0.00863   0.00275  -0.1357  0.7122  0.3874  -0.8234   0.0000   0.0000   0.0000   0.5171
  -0.750   0.5369   0.00845   0.00278  -0.1359  0.7084  0.4498  -0.8418   0.0000   0.0000   0.0000   0.5030
  -0.500   0.5649   0.00824   0.00278  -0.1360  0.7049  0.5265  -0.8609   0.0000   0.0000   0.0000   0.4903
  -0.250   0.5929   0.00804   0.00280  -0.1361  0.7020  0.6152  -0.8806   0.0000   0.0000   0.0000   0.4786
   0.000   0.6194   0.00785   0.00288  -0.1358  0.6980  0.7050  -0.8999   0.0000   0.0000   0.0000   0.4680
   0.250   0.6458   0.00769   0.00291  -0.1354  0.6943  0.7758  -0.9198   0.0000   0.0000   0.0000   0.4580
   0.500   0.6700   0.00752   0.00294  -0.1343  0.6912  0.8547  -0.9391   0.0000   0.0000   0.0000   0.4484
   0.750   0.6981   0.00733   0.00294  -0.1340  0.6868  0.9621  -0.9610   0.0000   0.0000   0.0000   0.4395
   1.000   0.7342   0.00733   0.00289  -0.1358  0.6830  1.0001  -0.9878   0.0000   0.0000   0.0000   0.4322
   1.250   0.7625   0.00739   0.00290  -0.1359  0.6792  1.0001  -1.0108   0.0000   0.0000   0.0000   0.4252
   1.500   0.7905   0.00744   0.00292  -0.1360  0.6745  1.0001  -1.0343   0.0000   0.0000   0.0000   0.4186
   1.750   0.8190   0.00750   0.00292  -0.1362  0.6707  1.0001  -1.0589   0.0000   0.0000   0.0000   0.4125
   2.000   0.8468   0.00755   0.00297  -0.1362  0.6657  1.0001  -1.0836   0.0000   0.0000   0.0000   0.4068
   2.250   0.8749   0.00760   0.00298  -0.1363  0.6612  1.0001  -1.1096   0.0000   0.0000   0.0000   0.4014
   2.500   0.9027   0.00766   0.00303  -0.1364  0.6562  1.0001  -1.1361   0.0000   0.0000   0.0000   0.3963
   2.750   0.9306   0.00772   0.00307  -0.1364  0.6511  1.0001  -1.1637   0.0000   0.0000   0.0000   0.3916
   3.000   0.9583   0.00779   0.00313  -0.1365  0.6456  1.0001  -1.1921   0.0000   0.0000   0.0000   0.3870
   3.250   0.9859   0.00786   0.00317  -0.1365  0.6400  1.0001  -1.2217   0.0000   0.0000   0.0000   0.3827
   3.500   1.0132   0.00793   0.00325  -0.1364  0.6338  1.0001  -1.2524   0.0000   0.0000   0.0000   0.3787
   4.000   1.0676   0.00809   0.00339  -0.1363  0.6204  1.0001  -1.3181   0.0000   0.0000   0.0000   0.3710
   4.250   1.0946   0.00819   0.00348  -0.1362  0.6132  1.0001  -1.3531   0.0000   0.0000   0.0000   0.3675
   4.500   1.1212   0.00830   0.00356  -0.1361  0.6057  1.0001  -1.3901   0.0000   0.0000   0.0000   0.3641
   4.750   1.1476   0.00841   0.00367  -0.1359  0.5970  1.0001  -1.4290   0.0000   0.0000   0.0000   0.3608
   5.000   1.1738   0.00853   0.00379  -0.1356  0.5878  1.0001  -1.4702   0.0000   0.0000   0.0000   0.3576
   5.250   1.1996   0.00867   0.00392  -0.1353  0.5778  1.0001  -1.5144   0.0000   0.0000   0.0000   0.3545
   5.500   1.2249   0.00883   0.00406  -0.1350  0.5671  1.0001  -1.5629   0.0000   0.0000   0.0000   0.3516
   5.750   1.2498   0.00901   0.00423  -0.1345  0.5553  1.0001  -1.6197   0.0000   0.0000   0.0000   0.3486
   6.000   1.2739   0.00922   0.00441  -0.1339  0.5423  1.0001  -1.6925   0.0000   0.0000   0.0000   0.3458
   6.250   1.2975   0.00945   0.00461  -0.1333  0.5278  1.0001  -1.7721   0.0000   0.0000   0.0000   0.3430
   6.500   1.3200   0.00973   0.00485  -0.1324  0.5116  1.0001  -1.8551   0.0000   0.0000   0.0000   0.3403
   6.750   1.3414   0.01006   0.00512  -0.1314  0.4941  1.0001  -1.9414   0.0000   0.0000   0.0000   0.3375
   7.000   1.3612   0.01046   0.00543  -0.1301  0.4755  1.0001  -2.0310   0.0000   0.0000   0.0000   0.3348
   7.250   1.3805   0.01087   0.00578  -0.1288  0.4561  1.0001  -2.1273   0.0000   0.0000   0.0000   0.3321
   7.500   1.3990   0.01130   0.00615  -0.1273  0.4373  1.0001  -2.2299   0.0000   0.0000   0.0000   0.3294
   7.750   1.4162   0.01178   0.00656  -0.1256  0.4193  1.0001  -2.3332   0.0000   0.0000   0.0000   0.3268
   8.000   1.4311   0.01227   0.00699  -0.1235  0.4015  1.0001  -2.4378   0.0000   0.0000   0.0000   0.3240
   8.250   1.4449   0.01280   0.00747  -0.1212  0.3837  1.0001  -2.5411   0.0000   0.0000   0.0000   0.3212
   8.500   1.4576   0.01342   0.00802  -0.1189  0.3657  1.0001  -2.6434   0.0000   0.0000   0.0000   0.3185
   9.000   1.4806   0.01490   0.00938  -0.1143  0.3277  1.0001  -2.8571   0.0000   0.0000   0.0000   0.3133
   9.250   1.4909   0.01579   0.01020  -0.1120  0.3080  1.0001  -2.9624   0.0000   0.0000   0.0000   0.3108
   9.500   1.5002   0.01679   0.01111  -0.1098  0.2880  1.0001  -3.0660   0.0000   0.0000   0.0000   0.3084
   9.750   1.5087   0.01790   0.01214  -0.1075  0.2678  1.0001  -3.1695   0.0000   0.0000   0.0000   0.3061
  10.000   1.5163   0.01911   0.01327  -0.1053  0.2477  1.0001  -3.2766   0.0000   0.0000   0.0000   0.3038
  10.250   1.5236   0.02040   0.01448  -0.1032  0.2279  1.0001  -3.3833   0.0000   0.0000   0.0000   0.3016
  10.500   1.5302   0.02178   0.01577  -0.1011  0.2083  1.0001  -3.4888   0.0000   0.0000   0.0000   0.2995
  10.750   1.5360   0.02324   0.01715  -0.0990  0.1892  1.0001  -3.5927   0.0000   0.0000   0.0000   0.2974
  11.000   1.5409   0.02480   0.01863  -0.0969  0.1708  1.0001  -3.6946   0.0000   0.0000   0.0000   0.2954
  11.250   1.5454   0.02643   0.02017  -0.0949  0.1534  1.0001  -3.7954   0.0000   0.0000   0.0000   0.2934
  11.500   1.5494   0.02811   0.02179  -0.0928  0.1373  1.0001  -3.9000   0.0000   0.0000   0.0000   0.2915
  11.750   1.5529   0.02986   0.02347  -0.0909  0.1223  1.0001  -4.0056   0.0000   0.0000   0.0000   0.2896
  12.000   1.5562   0.03167   0.02522  -0.0890  0.1085  1.0001  -4.1109   0.0000   0.0000   0.0000   0.2877
  12.250   1.5594   0.03350   0.02701  -0.0871  0.0962  1.0001  -4.2162   0.0000   0.0000   0.0000   0.2859
  12.500   1.5626   0.03539   0.02886  -0.0854  0.0856  1.0001  -4.3223   0.0000   0.0000   0.0000   0.2842
  12.750   1.5656   0.03735   0.03080  -0.0837  0.0767  1.0001  -4.4281   0.0000   0.0000   0.0000   0.2825
  13.000   1.5692   0.03931   0.03275  -0.0822  0.0693  1.0001  -4.5362   0.0000   0.0000   0.0000   0.2809
  13.250   1.5728   0.04131   0.03476  -0.0808  0.0629  1.0001  -4.6473   0.0000   0.0000   0.0000   0.2794
  13.500   1.5762   0.04339   0.03684  -0.0794  0.0575  1.0001  -4.7635   0.0000   0.0000   0.0000   0.2779
  13.750   1.5794   0.04554   0.03901  -0.0782  0.0530  1.0001  -4.8794   0.0000   0.0000   0.0000   0.2765
  14.000   1.5817   0.04782   0.04131  -0.0769  0.0492  1.0001  -4.9918   0.0000   0.0000   0.0000   0.2751
  14.250   1.5852   0.05001   0.04355  -0.0759  0.0459  1.0001  -5.1100   0.0000   0.0000   0.0000   0.2738
  14.500   1.5879   0.05234   0.04592  -0.0748  0.0431  1.0001  -5.2246   0.0000   0.0000   0.0000   0.2725
  14.750   1.5888   0.05491   0.04853  -0.0739  0.0407  1.0001  -5.3317   0.0000   0.0000   0.0000   0.2713
  15.000   1.5918   0.05731   0.05100  -0.0730  0.0384  1.0001  -5.4480   0.0000   0.0000   0.0000   0.2701
  15.250   1.5917   0.06009   0.05382  -0.0722  0.0365  1.0001  -5.5522   0.0000   0.0000   0.0000   0.2690
  15.500   1.5932   0.06272   0.05653  -0.0715  0.0347  1.0001  -5.6704   0.0000   0.0000   0.0000   0.2680
  15.750   1.5937   0.06550   0.05936  -0.0709  0.0331  1.0001  -5.7853   0.0000   0.0000   0.0000   0.2670
  16.000   1.5905   0.06879   0.06271  -0.0703  0.0318  1.0001  -5.8796   0.0000   0.0000   0.0000   0.2661
  16.250   1.5924   0.07152   0.06554  -0.0699  0.0304  1.0001  -6.0006   0.0000   0.0000   0.0000   0.2652
  16.500   1.5914   0.07466   0.06874  -0.0695  0.0293  1.0001  -6.1069   0.0000   0.0000   0.0000   0.2645
  16.750   1.5851   0.07848   0.07262  -0.0693  0.0284  1.0001  -6.1842   0.0000   0.0000   0.0000   0.2639
  17.000   1.5843   0.08166   0.07590  -0.0691  0.0275  1.0001  -6.2888   0.0000   0.0000   0.0000   0.2632
  17.250   1.5830   0.08493   0.07926  -0.0690  0.0266  1.0001  -6.3924   0.0000   0.0000   0.0000   0.2626
  17.500   1.5801   0.08847   0.08288  -0.0691  0.0257  1.0001  -6.4878   0.0000   0.0000   0.0000   0.2621
  17.750   1.5733   0.09260   0.08707  -0.0693  0.0250  1.0001  -6.5590   0.0000   0.0000   0.0000   0.2618
  18.000   1.5675   0.09665   0.09121  -0.0697  0.0244  1.0001  -6.6323   0.0000   0.0000   0.0000   0.2616
  18.250   1.5659   0.10014   0.09481  -0.0700  0.0237  1.0001  -6.7308   0.0000   0.0000   0.0000   0.2612
  18.500   1.5627   0.10385   0.09861  -0.0705  0.0230  1.0001  -6.8271   0.0000   0.0000   0.0000   0.2610
  18.750   1.5585   0.10775   0.10259  -0.0712  0.0224  1.0001  -6.9174   0.0000   0.0000   0.0000   0.2609
  19.000   1.5521   0.11201   0.10692  -0.0720  0.0219  1.0001  -6.9913   0.0000   0.0000   0.0000   0.2610
  19.250   1.5426   0.11674   0.11171  -0.0730  0.0215  1.0001  -7.0408   0.0000   0.0000   0.0000   0.2613
  19.500   1.5387   0.12074   0.11582  -0.0740  0.0210  1.0001  -7.1248   0.0000   0.0000   0.0000   0.2614
  19.750   1.5359   0.12460   0.11979  -0.0751  0.0206  1.0001  -7.2148   0.0000   0.0000   0.0000   0.2615
  20.000   1.5324   0.12857   0.12385  -0.0762  0.0201  1.0001  -7.3001   0.0000   0.0000   0.0000   0.2618


