xflr5 v6.61

 Calculated polar for: QX0026 thickness=13.65

 1 1 Reynolds number fixed          Mach number fixed         

 xtrf =   1.000 (top)        1.000 (bottom)
 Mach =   0.000     Re =     0.440 e 6     Ncrit =   9.000

  alpha     CL        CD       CDp       Cm    Top Xtr Bot Xtr   Cpmin    Chinge    XCp    
 ------- -------- --------- --------- -------- ------- ------- -------- --------- ---------
  -9.500  -0.3096   0.05087   0.04773  -0.1103  0.8366  0.0271  -4.1941   0.0000   0.0000   0.0000  -0.1302
  -9.250  -0.3280   0.03966   0.03608  -0.1256  0.8307  0.0266  -4.5421   0.0000   0.0000   0.0000  -0.1552
  -9.000  -0.3396   0.03098   0.02657  -0.1308  0.8255  0.0267  -4.8745   0.0000   0.0000   0.0000  -0.1564
  -8.750  -0.3288   0.02685   0.02176  -0.1319  0.8218  0.0271  -4.9318   0.0000   0.0000   0.0000  -0.1724
  -8.500  -0.3112   0.02407   0.01860  -0.1322  0.8181  0.0275  -4.8630   0.0000   0.0000   0.0000  -0.1969
  -8.250  -0.2877   0.02288   0.01732  -0.1324  0.8147  0.0281  -4.6813   0.0000   0.0000   0.0000  -0.2332
  -8.000  -0.2628   0.02198   0.01630  -0.1326  0.8119  0.0287  -4.4931   0.0000   0.0000   0.0000  -0.2783
  -7.750  -0.2383   0.02087   0.01501  -0.1327  0.8083  0.0295  -4.3298   0.0000   0.0000   0.0000  -0.3321
  -7.500  -0.2133   0.01976   0.01364  -0.1327  0.8050  0.0306  -4.1764   0.0000   0.0000   0.0000  -0.3994
  -7.250  -0.1876   0.01872   0.01227  -0.1327  0.8024  0.0316  -4.0234   0.0000   0.0000   0.0000  -0.4871
  -7.000  -0.1618   0.01785   0.01141  -0.1328  0.7990  0.0325  -3.8327   0.0000   0.0000   0.0000  -0.6038
  -6.750  -0.1351   0.01723   0.01071  -0.1329  0.7958  0.0336  -3.6548   0.0000   0.0000   0.0000  -0.7714
  -6.500  -0.1080   0.01658   0.00990  -0.1329  0.7932  0.0347  -3.4986   0.0000   0.0000   0.0000  -1.0259
  -6.250  -0.0806   0.01608   0.00921  -0.1329  0.7901  0.0359  -3.3459   0.0000   0.0000   0.0000  -1.4576
  -6.000  -0.0542   0.01530   0.00848  -0.1330  0.7869  0.0374  -3.1792   0.0000   0.0000   0.0000  -2.2839
  -5.750  -0.0265   0.01493   0.00803  -0.1331  0.7842  0.0391  -3.0073   0.0000   0.0000   0.0000  -4.9348
  -5.500   0.0013   0.01451   0.00749  -0.1331  0.7815  0.0408  -2.8498   0.0000   0.0000   0.0000  102.5811
  -5.250   0.0282   0.01396   0.00698  -0.1332  0.7782  0.0426  -2.6869   0.0000   0.0000   0.0000   5.1103
  -5.000   0.0561   0.01362   0.00658  -0.1333  0.7754  0.0449  -2.5253   0.0000   0.0000   0.0000   2.6885
  -4.750   0.0840   0.01320   0.00613  -0.1334  0.7730  0.0474  -2.3800   0.0000   0.0000   0.0000   1.8787
  -4.500   0.1118   0.01294   0.00586  -0.1335  0.7696  0.0504  -2.2353   0.0000   0.0000   0.0000   1.4732
  -4.250   0.1394   0.01256   0.00549  -0.1336  0.7665  0.0535  -2.0945   0.0000   0.0000   0.0000   1.2298
  -4.000   0.1678   0.01228   0.00515  -0.1337  0.7640  0.0576  -1.9538   0.0000   0.0000   0.0000   1.0637
  -3.750   0.1960   0.01205   0.00493  -0.1339  0.7609  0.0625  -1.8126   0.0000   0.0000   0.0000   0.9466
  -3.500   0.2239   0.01178   0.00468  -0.1340  0.7576  0.0685  -1.6793   0.0000   0.0000   0.0000   0.8593
  -3.250   0.2523   0.01152   0.00442  -0.1342  0.7547  0.0765  -1.5555   0.0000   0.0000   0.0000   0.7906
  -3.000   0.2809   0.01129   0.00422  -0.1344  0.7521  0.0882  -1.4323   0.0000   0.0000   0.0000   0.7357
  -2.750   0.3087   0.01103   0.00406  -0.1345  0.7484  0.1070  -1.3130   0.0000   0.0000   0.0000   0.6917
  -2.500   0.3370   0.01075   0.00391  -0.1348  0.7454  0.1419  -1.1935   0.0000   0.0000   0.0000   0.6547
  -2.250   0.3658   0.01050   0.00379  -0.1351  0.7429  0.1906  -1.0828   0.0000   0.0000   0.0000   0.6232
  -2.000   0.3934   0.01032   0.00377  -0.1352  0.7390  0.2373  -0.9765   0.0000   0.0000   0.0000   0.5968
  -1.750   0.4217   0.01014   0.00372  -0.1354  0.7357  0.2824  -0.8708   0.0000   0.0000   0.0000   0.5734
  -1.500   0.4506   0.00998   0.00365  -0.1357  0.7331  0.3301  -0.7840   0.0000   0.0000   0.0000   0.5529
  -1.250   0.4783   0.00982   0.00367  -0.1359  0.7293  0.3834  -0.8014   0.0000   0.0000   0.0000   0.5351
  -1.000   0.5062   0.00962   0.00365  -0.1360  0.7258  0.4482  -0.8196   0.0000   0.0000   0.0000   0.5192
  -0.750   0.5345   0.00940   0.00363  -0.1362  0.7230  0.5286  -0.8386   0.0000   0.0000   0.0000   0.5048
  -0.500   0.5611   0.00918   0.00371  -0.1360  0.7191  0.6189  -0.8569   0.0000   0.0000   0.0000   0.4919
  -0.250   0.5873   0.00897   0.00376  -0.1356  0.7155  0.7118  -0.8756   0.0000   0.0000   0.0000   0.4800
   0.000   0.6131   0.00878   0.00376  -0.1349  0.7126  0.7905  -0.8948   0.0000   0.0000   0.0000   0.4687
   0.250   0.6344   0.00859   0.00383  -0.1331  0.7084  0.8777  -0.9119   0.0000   0.0000   0.0000   0.4582
   0.500   0.6744   0.00843   0.00373  -0.1353  0.7047  0.9948  -0.9397   0.0000   0.0000   0.0000   0.4486
   0.750   0.7045   0.00847   0.00367  -0.1358  0.7016  1.0001  -0.9627   0.0000   0.0000   0.0000   0.4404
   1.000   0.7316   0.00853   0.00372  -0.1358  0.6969  1.0001  -0.9843   0.0000   0.0000   0.0000   0.4328
   1.250   0.7602   0.00857   0.00369  -0.1359  0.6931  1.0001  -1.0076   0.0000   0.0000   0.0000   0.4258
   1.500   0.7883   0.00863   0.00372  -0.1360  0.6890  1.0001  -1.0311   0.0000   0.0000   0.0000   0.4192
   1.750   0.8161   0.00868   0.00374  -0.1361  0.6844  1.0001  -1.0552   0.0000   0.0000   0.0000   0.4130
   2.000   0.8451   0.00873   0.00372  -0.1363  0.6807  1.0001  -1.0809   0.0000   0.0000   0.0000   0.4073
   2.250   0.8720   0.00879   0.00379  -0.1362  0.6753  1.0001  -1.1059   0.0000   0.0000   0.0000   0.4018
   2.500   0.9006   0.00884   0.00378  -0.1363  0.6711  1.0001  -1.1331   0.0000   0.0000   0.0000   0.3967
   2.750   0.9276   0.00891   0.00386  -0.1363  0.6655  1.0001  -1.1600   0.0000   0.0000   0.0000   0.3919
   3.000   0.9558   0.00896   0.00387  -0.1363  0.6607  1.0001  -1.1888   0.0000   0.0000   0.0000   0.3873
   3.250   0.9828   0.00902   0.00395  -0.1362  0.6548  1.0001  -1.2179   0.0000   0.0000   0.0000   0.3830
   3.500   1.0108   0.00908   0.00397  -0.1363  0.6496  1.0001  -1.2492   0.0000   0.0000   0.0000   0.3789
   3.750   1.0373   0.00915   0.00406  -0.1361  0.6429  1.0001  -1.2806   0.0000   0.0000   0.0000   0.3749
   4.000   1.0647   0.00922   0.00411  -0.1361  0.6369  1.0001  -1.3143   0.0000   0.0000   0.0000   0.3712
   4.250   1.0913   0.00930   0.00419  -0.1359  0.6298  1.0001  -1.3491   0.0000   0.0000   0.0000   0.3676
   4.500   1.1177   0.00939   0.00429  -0.1357  0.6223  1.0001  -1.3857   0.0000   0.0000   0.0000   0.3641
   4.750   1.1442   0.00948   0.00437  -0.1355  0.6148  1.0001  -1.4246   0.0000   0.0000   0.0000   0.3608
   5.000   1.1704   0.00959   0.00446  -0.1352  0.6067  1.0001  -1.4658   0.0000   0.0000   0.0000   0.3576
   5.250   1.1959   0.00970   0.00459  -0.1348  0.5973  1.0001  -1.5095   0.0000   0.0000   0.0000   0.3545
   5.500   1.2212   0.00983   0.00473  -0.1344  0.5874  1.0001  -1.5575   0.0000   0.0000   0.0000   0.3515
   5.750   1.2461   0.00999   0.00488  -0.1340  0.5769  1.0001  -1.6134   0.0000   0.0000   0.0000   0.3486
   6.000   1.2705   0.01016   0.00504  -0.1334  0.5655  1.0001  -1.6852   0.0000   0.0000   0.0000   0.3457
   6.250   1.2942   0.01036   0.00522  -0.1327  0.5532  1.0001  -1.7645   0.0000   0.0000   0.0000   0.3429
   6.500   1.3172   0.01058   0.00543  -0.1320  0.5394  1.0001  -1.8477   0.0000   0.0000   0.0000   0.3401
   6.750   1.3392   0.01084   0.00567  -0.1310  0.5239  1.0001  -1.9346   0.0000   0.0000   0.0000   0.3374
   7.000   1.3598   0.01117   0.00594  -0.1298  0.5074  1.0001  -2.0253   0.0000   0.0000   0.0000   0.3347
   7.250   1.3792   0.01154   0.00626  -0.1284  0.4891  1.0001  -2.1214   0.0000   0.0000   0.0000   0.3320
   7.500   1.3974   0.01196   0.00662  -0.1269  0.4704  1.0001  -2.2226   0.0000   0.0000   0.0000   0.3293
   7.750   1.4141   0.01243   0.00703  -0.1251  0.4521  1.0001  -2.3238   0.0000   0.0000   0.0000   0.3265
   8.000   1.4296   0.01293   0.00747  -0.1231  0.4341  1.0001  -2.4296   0.0000   0.0000   0.0000   0.3238
   8.250   1.4424   0.01344   0.00794  -0.1206  0.4168  1.0001  -2.5304   0.0000   0.0000   0.0000   0.3209
   8.500   1.4540   0.01406   0.00850  -0.1181  0.3995  1.0001  -2.6294   0.0000   0.0000   0.0000   0.3181
   8.750   1.4659   0.01473   0.00912  -0.1157  0.3814  1.0001  -2.7353   0.0000   0.0000   0.0000   0.3154
   9.000   1.4766   0.01549   0.00984  -0.1133  0.3631  1.0001  -2.8405   0.0000   0.0000   0.0000   0.3128
   9.250   1.4861   0.01638   0.01067  -0.1109  0.3446  1.0001  -2.9433   0.0000   0.0000   0.0000   0.3103
   9.500   1.4947   0.01738   0.01161  -0.1085  0.3255  1.0001  -3.0445   0.0000   0.0000   0.0000   0.3078
   9.750   1.5025   0.01850   0.01265  -0.1062  0.3059  1.0001  -3.1444   0.0000   0.0000   0.0000   0.3054
  10.000   1.5098   0.01971   0.01380  -0.1039  0.2860  1.0001  -3.2493   0.0000   0.0000   0.0000   0.3032
  10.250   1.5163   0.02103   0.01505  -0.1017  0.2659  1.0001  -3.3532   0.0000   0.0000   0.0000   0.3010
  10.500   1.5222   0.02246   0.01640  -0.0996  0.2458  1.0001  -3.4559   0.0000   0.0000   0.0000   0.2988
  10.750   1.5273   0.02397   0.01783  -0.0974  0.2261  1.0001  -3.5568   0.0000   0.0000   0.0000   0.2967
  11.000   1.5315   0.02558   0.01936  -0.0953  0.2066  1.0001  -3.6558   0.0000   0.0000   0.0000   0.2947
  11.250   1.5351   0.02728   0.02098  -0.0932  0.1877  1.0001  -3.7527   0.0000   0.0000   0.0000   0.2927
  11.500   1.5378   0.02907   0.02270  -0.0911  0.1695  1.0001  -3.8496   0.0000   0.0000   0.0000   0.2908
  11.750   1.5400   0.03094   0.02450  -0.0891  0.1522  1.0001  -3.9493   0.0000   0.0000   0.0000   0.2889
  12.000   1.5418   0.03288   0.02636  -0.0871  0.1360  1.0001  -4.0480   0.0000   0.0000   0.0000   0.2870
  12.250   1.5433   0.03487   0.02830  -0.0852  0.1210  1.0001  -4.1461   0.0000   0.0000   0.0000   0.2852
  12.500   1.5446   0.03696   0.03033  -0.0834  0.1075  1.0001  -4.2433   0.0000   0.0000   0.0000   0.2835
  12.750   1.5461   0.03908   0.03242  -0.0817  0.0954  1.0001  -4.3415   0.0000   0.0000   0.0000   0.2819
  13.000   1.5475   0.04126   0.03457  -0.0801  0.0851  1.0001  -4.4398   0.0000   0.0000   0.0000   0.2803
  13.250   1.5485   0.04355   0.03684  -0.0786  0.0767  1.0001  -4.5363   0.0000   0.0000   0.0000   0.2788
  13.500   1.5499   0.04587   0.03916  -0.0772  0.0698  1.0001  -4.6379   0.0000   0.0000   0.0000   0.2773
  13.750   1.5514   0.04824   0.04154  -0.0760  0.0641  1.0001  -4.7434   0.0000   0.0000   0.0000   0.2759
  14.000   1.5519   0.05073   0.04405  -0.0748  0.0593  1.0001  -4.8451   0.0000   0.0000   0.0000   0.2746
  14.250   1.5535   0.05319   0.04655  -0.0737  0.0551  1.0001  -4.9515   0.0000   0.0000   0.0000   0.2733
  14.500   1.5551   0.05572   0.04913  -0.0728  0.0514  1.0001  -5.0576   0.0000   0.0000   0.0000   0.2721
  14.750   1.5548   0.05849   0.05194  -0.0718  0.0484  1.0001  -5.1558   0.0000   0.0000   0.0000   0.2710
  15.000   1.5551   0.06124   0.05474  -0.0711  0.0457  1.0001  -5.2571   0.0000   0.0000   0.0000   0.2699
  15.250   1.5546   0.06413   0.05770  -0.0703  0.0434  1.0001  -5.3528   0.0000   0.0000   0.0000   0.2689
  15.500   1.5539   0.06710   0.06072  -0.0697  0.0413  1.0001  -5.4489   0.0000   0.0000   0.0000   0.2679
  15.750   1.5511   0.07038   0.06406  -0.0692  0.0396  1.0001  -5.5405   0.0000   0.0000   0.0000   0.2671
  16.000   1.5514   0.07334   0.06712  -0.0688  0.0377  1.0001  -5.6485   0.0000   0.0000   0.0000   0.2663
  16.250   1.5467   0.07696   0.07078  -0.0685  0.0364  1.0001  -5.7311   0.0000   0.0000   0.0000   0.2656
  16.500   1.5453   0.08020   0.07412  -0.0682  0.0349  1.0001  -5.8283   0.0000   0.0000   0.0000   0.2649
  16.750   1.5440   0.08347   0.07747  -0.0681  0.0336  1.0001  -5.9280   0.0000   0.0000   0.0000   0.2643
  17.000   1.5391   0.08725   0.08130  -0.0682  0.0325  1.0001  -6.0082   0.0000   0.0000   0.0000   0.2639
  17.250   1.5349   0.09100   0.08513  -0.0682  0.0315  1.0001  -6.0882   0.0000   0.0000   0.0000   0.2634
  17.500   1.5334   0.09443   0.08868  -0.0684  0.0304  1.0001  -6.1830   0.0000   0.0000   0.0000   0.2630
  17.750   1.5306   0.09808   0.09240  -0.0688  0.0295  1.0001  -6.2712   0.0000   0.0000   0.0000   0.2627
  18.000   1.5256   0.10201   0.09639  -0.0692  0.0288  1.0001  -6.3464   0.0000   0.0000   0.0000   0.2625
  18.250   1.5196   0.10606   0.10049  -0.0697  0.0280  1.0001  -6.4121   0.0000   0.0000   0.0000   0.2624
  18.500   1.5183   0.10959   0.10415  -0.0702  0.0272  1.0001  -6.5031   0.0000   0.0000   0.0000   0.2622
  18.750   1.5161   0.11325   0.10791  -0.0709  0.0264  1.0001  -6.5950   0.0000   0.0000   0.0000   0.2621
  19.000   1.5135   0.11700   0.11172  -0.0718  0.0257  1.0001  -6.6885   0.0000   0.0000   0.0000   0.2621
  19.250   1.5099   0.12085   0.11562  -0.0727  0.0251  1.0001  -6.7749   0.0000   0.0000   0.0000   0.2622
  19.500   1.5067   0.12460   0.11942  -0.0736  0.0245  1.0001  -6.8587   0.0000   0.0000   0.0000   0.2622
  19.750   1.5052   0.12828   0.12323  -0.0747  0.0239  1.0001  -6.9514   0.0000   0.0000   0.0000   0.2623
  20.000   1.5035   0.13195   0.12700  -0.0758  0.0233  1.0001  -7.0428   0.0000   0.0000   0.0000   0.2625


