xflr5 v6.61

 Calculated polar for: QX0026 v46

 1 1 Reynolds number fixed          Mach number fixed         

 xtrf =   1.000 (top)        1.000 (bottom)
 Mach =   0.000     Re =     0.500 e 6     Ncrit =   9.000

  alpha     CL        CD       CDp       Cm    Top Xtr Bot Xtr   Cpmin    Chinge    XCp    
 ------- -------- --------- --------- -------- ------- ------- -------- --------- ---------
  -5.000   0.0465   0.01273   0.00584  -0.1305  0.7651  0.0449  -2.5097   0.0000   0.0000   0.0000   3.1361
  -4.500   0.1025   0.01208   0.00515  -0.1307  0.7588  0.0498  -2.2162   0.0000   0.0000   0.0000   1.5565
  -4.000   0.1594   0.01156   0.00456  -0.1311  0.7528  0.0564  -1.9288   0.0000   0.0000   0.0000   1.0897
  -3.500   0.2159   0.01104   0.00408  -0.1314  0.7458  0.0662  -1.6706   0.0000   0.0000   0.0000   0.8694
  -3.000   0.2730   0.01059   0.00367  -0.1318  0.7395  0.0863  -1.4234   0.0000   0.0000   0.0000   0.7398
  -2.500   0.3301   0.01008   0.00336  -0.1322  0.7330  0.1440  -1.1960   0.0000   0.0000   0.0000   0.6553
  -2.000   0.3868   0.00971   0.00324  -0.1327  0.7257  0.2243  -0.9790   0.0000   0.0000   0.0000   0.5958
  -1.500   0.4441   0.00944   0.00315  -0.1331  0.7189  0.2973  -0.7849   0.0000   0.0000   0.0000   0.5512
  -1.000   0.5014   0.00915   0.00308  -0.1336  0.7121  0.3846  -0.8225   0.0000   0.0000   0.0000   0.5168
  -0.500   0.5574   0.00876   0.00311  -0.1339  0.7043  0.5239  -0.8633   0.0000   0.0000   0.0000   0.4896
   0.000   0.6120   0.00836   0.00320  -0.1336  0.6965  0.6986  -0.9048   0.0000   0.0000   0.0000   0.4670
   0.500   0.6595   0.00795   0.00326  -0.1313  0.6889  0.8784  -0.9436   0.0000   0.0000   0.0000   0.4469
   1.000   0.7251   0.00785   0.00317  -0.1331  0.6807  1.0001  -0.9947   0.0000   0.0000   0.0000   0.4306
   1.500   0.7814   0.00796   0.00321  -0.1332  0.6715  1.0001  -1.0452   0.0000   0.0000   0.0000   0.4170
   2.000   0.8375   0.00807   0.00325  -0.1334  0.6614  1.0001  -1.0965   0.0000   0.0000   0.0000   0.4051
   2.500   0.8935   0.00819   0.00332  -0.1335  0.6510  1.0001  -1.1496   0.0000   0.0000   0.0000   0.3946
   3.000   0.9491   0.00832   0.00341  -0.1335  0.6401  1.0001  -1.2119   0.0000   0.0000   0.0000   0.3853
   3.500   1.0041   0.00847   0.00351  -0.1335  0.6273  1.0001  -1.2753   0.0000   0.0000   0.0000   0.3768
   4.000   1.0582   0.00865   0.00367  -0.1333  0.6128  1.0001  -1.3398   0.0000   0.0000   0.0000   0.3692
   4.500   1.1119   0.00886   0.00387  -0.1330  0.5975  1.0001  -1.4184   0.0000   0.0000   0.0000   0.3622
   5.000   1.1642   0.00911   0.00410  -0.1325  0.5786  1.0001  -1.4973   0.0000   0.0000   0.0000   0.3558
   5.500   1.2152   0.00943   0.00438  -0.1318  0.5572  1.0001  -1.5890   0.0000   0.0000   0.0000   0.3497
   6.000   1.2643   0.00983   0.00474  -0.1307  0.5325  1.0001  -1.7038   0.0000   0.0000   0.0000   0.3440
   6.500   1.3108   0.01035   0.00519  -0.1293  0.5045  1.0001  -1.8533   0.0000   0.0000   0.0000   0.3385
   7.000   1.3533   0.01103   0.00576  -0.1272  0.4708  1.0001  -2.0064   0.0000   0.0000   0.0000   0.3331
   7.500   1.3933   0.01182   0.00645  -0.1248  0.4391  1.0001  -2.1848   0.0000   0.0000   0.0000   0.3279
   8.000   1.4291   0.01272   0.00726  -0.1217  0.4067  1.0001  -2.3936   0.0000   0.0000   0.0000   0.3227
   8.500   1.4578   0.01375   0.00821  -0.1174  0.3757  1.0001  -2.6023   0.0000   0.0000   0.0000   0.3173
   9.000   1.4842   0.01503   0.00940  -0.1132  0.3442  1.0001  -2.8173   0.0000   0.0000   0.0000   0.3122
   9.500   1.5065   0.01669   0.01096  -0.1088  0.3085  1.0001  -3.0323   0.0000   0.0000   0.0000   0.3074
  10.000   1.5247   0.01880   0.01293  -0.1045  0.2718  1.0001  -3.2420   0.0000   0.0000   0.0000   0.3028
  10.500   1.5405   0.02128   0.01529  -0.1004  0.2360  1.0001  -3.4590   0.0000   0.0000   0.0000   0.2986
  11.000   1.5531   0.02416   0.01803  -0.0964  0.2008  1.0001  -3.6695   0.0000   0.0000   0.0000   0.2945
  11.500   1.5625   0.02741   0.02114  -0.0925  0.1657  1.0001  -3.8723   0.0000   0.0000   0.0000   0.2907
  12.000   1.5683   0.03107   0.02467  -0.0886  0.1348  1.0001  -4.0768   0.0000   0.0000   0.0000   0.2870
  12.500   1.5718   0.03503   0.02851  -0.0848  0.1056  1.0001  -4.2759   0.0000   0.0000   0.0000   0.2835
  13.000   1.5744   0.03930   0.03273  -0.0815  0.0853  1.0001  -4.4723   0.0000   0.0000   0.0000   0.2802
  13.500   1.5787   0.04366   0.03708  -0.0787  0.0701  1.0001  -4.6762   0.0000   0.0000   0.0000   0.2772
  14.000   1.5829   0.04826   0.04171  -0.0763  0.0599  1.0001  -4.8917   0.0000   0.0000   0.0000   0.2745
  14.500   1.5847   0.05329   0.04683  -0.0742  0.0528  1.0001  -5.1015   0.0000   0.0000   0.0000   0.2721
  15.000   1.5859   0.05864   0.05228  -0.0725  0.0471  1.0001  -5.3090   0.0000   0.0000   0.0000   0.2698
  15.500   1.5848   0.06443   0.05820  -0.0711  0.0425  1.0001  -5.5050   0.0000   0.0000   0.0000   0.2679
  16.000   1.5817   0.07068   0.06458  -0.0701  0.0386  1.0001  -5.6910   0.0000   0.0000   0.0000   0.2662
  16.500   1.5762   0.07746   0.07147  -0.0696  0.0353  1.0001  -5.8723   0.0000   0.0000   0.0000   0.2648
  17.000   1.5735   0.08400   0.07818  -0.0694  0.0323  1.0001  -6.0737   0.0000   0.0000   0.0000   0.2636
  17.500   1.5660   0.09142   0.08577  -0.0697  0.0301  1.0001  -6.2436   0.0000   0.0000   0.0000   0.2628
  18.000   1.5566   0.09925   0.09375  -0.0705  0.0283  1.0001  -6.4024   0.0000   0.0000   0.0000   0.2623
  18.500   1.5466   0.10726   0.10194  -0.0717  0.0267  1.0001  -6.5486   0.0000   0.0000   0.0000   0.2621
  19.000   1.5384   0.11520   0.11006  -0.0733  0.0252  1.0001  -6.7044   0.0000   0.0000   0.0000   0.2622
  19.500   1.5256   0.12392   0.11890  -0.0755  0.0240  1.0001  -6.8225   0.0000   0.0000   0.0000   0.2628
  20.000   1.5201   0.13168   0.12687  -0.0779  0.0228  1.0001  -6.9785   0.0000   0.0000   0.0000   0.2632


