xflr5 v6.61

 Calculated polar for: QX0026 thickness=13.65

 1 1 Reynolds number fixed          Mach number fixed         

 xtrf =   1.000 (top)        1.000 (bottom)
 Mach =   0.000     Re =     0.200 e 6     Ncrit =   9.000

  alpha     CL        CD       CDp       Cm    Top Xtr Bot Xtr   Cpmin    Chinge    XCp    
 ------- -------- --------- --------- -------- ------- ------- -------- --------- ---------
 -10.000  -0.1297   0.09958   0.09585  -0.0898  0.9314  0.0604  -1.5580   0.0000   0.0000   0.0000  -0.4942
  -9.750  -0.1491   0.09431   0.09060  -0.0977  0.9218  0.0629  -1.8393   0.0000   0.0000   0.0000  -0.4489
  -9.500  -0.1300   0.09229   0.08854  -0.0947  0.9172  0.0635  -1.6792   0.0000   0.0000   0.0000  -0.5280
  -9.250  -0.1186   0.09009   0.08632  -0.0942  0.9119  0.0648  -1.6046   0.0000   0.0000   0.0000  -0.5969
  -9.000  -0.1133   0.08725   0.08347  -0.0956  0.9056  0.0670  -1.6003   0.0000   0.0000   0.0000  -0.6470
  -8.750  -0.1266   0.08175   0.07799  -0.1024  0.8981  0.0694  -1.8072   0.0000   0.0000   0.0000  -0.6048
  -8.500  -0.1103   0.08015   0.07636  -0.1004  0.8935  0.0704  -1.6927   0.0000   0.0000   0.0000  -0.7121
  -8.250  -0.1016   0.07776   0.07396  -0.1010  0.8887  0.0725  -1.6599   0.0000   0.0000   0.0000  -0.7972
  -7.250  -0.1418   0.03956   0.03441  -0.1393  0.8618  0.0569  -2.9360   0.0000   0.0000   0.0000  -0.7689
  -7.000  -0.1198   0.03819   0.03317  -0.1391  0.8583  0.0578  -2.7772   0.0000   0.0000   0.0000  -0.9526
  -6.750  -0.0939   0.03963   0.03482  -0.1385  0.8548  0.0649  -2.5064   0.0000   0.0000   0.0000  -1.2744
  -6.500  -0.0734   0.03969   0.03483  -0.1387  0.8505  0.0769  -2.3273   0.0000   0.0000   0.0000  -1.7019
  -6.250  -0.0514   0.03899   0.03410  -0.1388  0.8476  0.0844  -2.1785   0.0000   0.0000   0.0000  -2.5351
  -6.000  -0.0312   0.03835   0.03345  -0.1388  0.8428  0.0929  -2.0460   0.0000   0.0000   0.0000  -4.3215
  -5.500   0.0048   0.02293   0.01538  -0.1394  0.8349  0.0588  -2.5941   0.0000   0.0000   0.0000  30.1730
  -5.250   0.0315   0.02216   0.01438  -0.1392  0.8318  0.0619  -2.4719   0.0000   0.0000   0.0000   4.7918
  -5.000   0.0576   0.02131   0.01344  -0.1391  0.8285  0.0645  -2.3474   0.0000   0.0000   0.0000   2.7306
  -4.750   0.0831   0.02072   0.01276  -0.1388  0.8244  0.0675  -2.2268   0.0000   0.0000   0.0000   1.9636
  -4.500   0.1107   0.02004   0.01202  -0.1387  0.8217  0.0714  -2.1081   0.0000   0.0000   0.0000   1.5342
  -4.250   0.1359   0.01965   0.01155  -0.1384  0.8175  0.0760  -1.9985   0.0000   0.0000   0.0000   1.2928
  -4.000   0.1625   0.01914   0.01107  -0.1382  0.8141  0.0810  -1.8780   0.0000   0.0000   0.0000   1.1198
  -3.750   0.1908   0.01863   0.01055  -0.1383  0.8117  0.0879  -1.7528   0.0000   0.0000   0.0000   0.9900
  -3.500   0.2145   0.01840   0.01038  -0.1378  0.8067  0.0955  -1.6408   0.0000   0.0000   0.0000   0.9052
  -3.250   0.2421   0.01795   0.00997  -0.1378  0.8037  0.1063  -1.5312   0.0000   0.0000   0.0000   0.8296
  -3.000   0.2685   0.01763   0.00973  -0.1377  0.8002  0.1216  -1.4254   0.0000   0.0000   0.0000   0.7715
  -2.750   0.2940   0.01734   0.00957  -0.1375  0.7959  0.1467  -1.3213   0.0000   0.0000   0.0000   0.7249
  -2.500   0.3225   0.01683   0.00929  -0.1377  0.7933  0.1969  -1.2101   0.0000   0.0000   0.0000   0.6830
  -2.250   0.3468   0.01669   0.00941  -0.1375  0.7886  0.2614  -1.1117   0.0000   0.0000   0.0000   0.6514
  -2.000   0.3742   0.01644   0.00935  -0.1376  0.7852  0.3258  -1.0081   0.0000   0.0000   0.0000   0.6216
  -1.750   0.4032   0.01611   0.00920  -0.1377  0.7829  0.3939  -0.9020   0.0000   0.0000   0.0000   0.5947
  -1.500   0.4257   0.01612   0.00949  -0.1371  0.7773  0.4658  -0.8114   0.0000   0.0000   0.0000   0.5746
  -1.250   0.4527   0.01578   0.00945  -0.1368  0.7744  0.5626  -0.7716   0.0000   0.0000   0.0000   0.5540
  -1.000   0.4749   0.01564   0.00967  -0.1355  0.7701  0.6687  -0.7867   0.0000   0.0000   0.0000   0.5367
  -0.750   0.4959   0.01545   0.00977  -0.1336  0.7660  0.7717  -0.8019   0.0000   0.0000   0.0000   0.5202
  -0.500   0.5186   0.01509   0.00962  -0.1313  0.7635  0.8892  -0.8193   0.0000   0.0000   0.0000   0.5034
  -0.250   0.5601   0.01518   0.00970  -0.1342  0.7585  1.0001  -0.8452   0.0000   0.0000   0.0000   0.4894
   0.000   0.5893   0.01519   0.00957  -0.1345  0.7550  1.0001  -0.8662   0.0000   0.0000   0.0000   0.4775
   0.250   0.6174   0.01528   0.00954  -0.1346  0.7513  1.0001  -0.8868   0.0000   0.0000   0.0000   0.4668
   0.750   0.6742   0.01537   0.00945  -0.1348  0.7435  1.0001  -0.9301   0.0000   0.0000   0.0000   0.4480
   1.000   0.6978   0.01567   0.00971  -0.1343  0.7376  1.0001  -0.9489   0.0000   0.0000   0.0000   0.4401
   1.250   0.7280   0.01561   0.00956  -0.1345  0.7343  1.0001  -0.9735   0.0000   0.0000   0.0000   0.4321
   1.500   0.7536   0.01580   0.00971  -0.1343  0.7291  1.0001  -0.9952   0.0000   0.0000   0.0000   0.4251
   1.750   0.7823   0.01580   0.00965  -0.1343  0.7249  1.0001  -1.0199   0.0000   0.0000   0.0000   0.4183
   2.000   0.8120   0.01577   0.00956  -0.1345  0.7212  1.0001  -1.0461   0.0000   0.0000   0.0000   0.4120
   2.250   0.8372   0.01593   0.00971  -0.1341  0.7154  1.0001  -1.0696   0.0000   0.0000   0.0000   0.4062
   2.500   0.8694   0.01576   0.00945  -0.1347  0.7124  1.0001  -1.0995   0.0000   0.0000   0.0000   0.4005
   2.750   0.8925   0.01600   0.00972  -0.1340  0.7055  1.0001  -1.1231   0.0000   0.0000   0.0000   0.3954
   3.000   0.9246   0.01582   0.00947  -0.1345  0.7022  1.0001  -1.1549   0.0000   0.0000   0.0000   0.3904
   3.250   0.9481   0.01603   0.00970  -0.1338  0.6953  1.0001  -1.1808   0.0000   0.0000   0.0000   0.3858
   3.500   0.9804   0.01582   0.00944  -0.1344  0.6917  1.0001  -1.2153   0.0000   0.0000   0.0000   0.3813
   3.750   1.0039   0.01600   0.00965  -0.1337  0.6845  1.0001  -1.2437   0.0000   0.0000   0.0000   0.3771
   4.000   1.0355   0.01582   0.00942  -0.1341  0.6803  1.0001  -1.2805   0.0000   0.0000   0.0000   0.3731
   4.250   1.0599   0.01592   0.00956  -0.1335  0.6730  1.0001  -1.3128   0.0000   0.0000   0.0000   0.3693
   4.500   1.0867   0.01593   0.00958  -0.1332  0.6666  1.0001  -1.3489   0.0000   0.0000   0.0000   0.3656
   4.750   1.1165   0.01578   0.00941  -0.1334  0.6609  1.0001  -1.3901   0.0000   0.0000   0.0000   0.3621
   5.000   1.1409   0.01586   0.00953  -0.1328  0.6530  1.0001  -1.4285   0.0000   0.0000   0.0000   0.3586
   5.250   1.1683   0.01581   0.00948  -0.1326  0.6460  1.0001  -1.4726   0.0000   0.0000   0.0000   0.3554
   5.500   1.1973   0.01568   0.00934  -0.1326  0.6392  1.0001  -1.5225   0.0000   0.0000   0.0000   0.3523
   5.750   1.2214   0.01574   0.00945  -0.1319  0.6302  1.0001  -1.5731   0.0000   0.0000   0.0000   0.3492
   6.000   1.2462   0.01577   0.00950  -0.1312  0.6212  1.0001  -1.6372   0.0000   0.0000   0.0000   0.3462
   6.250   1.2713   0.01578   0.00954  -0.1307  0.6120  1.0001  -1.7144   0.0000   0.0000   0.0000   0.3433
   6.500   1.2961   0.01580   0.00959  -0.1300  0.6022  1.0001  -1.7974   0.0000   0.0000   0.0000   0.3405
   6.750   1.3201   0.01586   0.00966  -0.1293  0.5915  1.0001  -1.8848   0.0000   0.0000   0.0000   0.3377
   7.000   1.3432   0.01594   0.00977  -0.1283  0.5800  1.0001  -1.9765   0.0000   0.0000   0.0000   0.3349
   7.250   1.3654   0.01606   0.00990  -0.1273  0.5675  1.0001  -2.0746   0.0000   0.0000   0.0000   0.3322
   7.500   1.3873   0.01620   0.01004  -0.1262  0.5542  1.0001  -2.1797   0.0000   0.0000   0.0000   0.3296
   7.750   1.4073   0.01640   0.01024  -0.1248  0.5395  1.0001  -2.2877   0.0000   0.0000   0.0000   0.3269
   8.000   1.4251   0.01668   0.01052  -0.1230  0.5232  1.0001  -2.3950   0.0000   0.0000   0.0000   0.3241
   8.250   1.4423   0.01700   0.01082  -0.1212  0.5064  1.0001  -2.5061   0.0000   0.0000   0.0000   0.3214
   8.500   1.4573   0.01742   0.01120  -0.1190  0.4888  1.0001  -2.6136   0.0000   0.0000   0.0000   0.3187
   8.750   1.4700   0.01791   0.01167  -0.1165  0.4712  1.0001  -2.7187   0.0000   0.0000   0.0000   0.3159
   9.000   1.4804   0.01847   0.01216  -0.1137  0.4543  1.0001  -2.8231   0.0000   0.0000   0.0000   0.3130
   9.250   1.4886   0.01914   0.01284  -0.1106  0.4366  1.0001  -2.9221   0.0000   0.0000   0.0000   0.3101
   9.500   1.4966   0.01992   0.01358  -0.1077  0.4192  1.0001  -3.0215   0.0000   0.0000   0.0000   0.3073
   9.750   1.5032   0.02082   0.01444  -0.1048  0.4014  1.0001  -3.1179   0.0000   0.0000   0.0000   0.3046
  10.000   1.5088   0.02183   0.01544  -0.1020  0.3833  1.0001  -3.2141   0.0000   0.0000   0.0000   0.3021
  10.250   1.5135   0.02298   0.01655  -0.0992  0.3651  1.0001  -3.3119   0.0000   0.0000   0.0000   0.2996
  10.500   1.5170   0.02427   0.01781  -0.0965  0.3468  1.0001  -3.4067   0.0000   0.0000   0.0000   0.2972
  10.750   1.5198   0.02570   0.01921  -0.0939  0.3276  1.0001  -3.4994   0.0000   0.0000   0.0000   0.2948
  11.000   1.5218   0.02726   0.02074  -0.0914  0.3083  1.0001  -3.5899   0.0000   0.0000   0.0000   0.2926
  11.250   1.5226   0.02898   0.02241  -0.0889  0.2888  1.0001  -3.6769   0.0000   0.0000   0.0000   0.2905
  11.500   1.5225   0.03085   0.02423  -0.0865  0.2691  1.0001  -3.7608   0.0000   0.0000   0.0000   0.2884
  11.750   1.5214   0.03286   0.02620  -0.0842  0.2494  1.0001  -3.8432   0.0000   0.0000   0.0000   0.2864
  12.000   1.5191   0.03504   0.02831  -0.0819  0.2297  1.0001  -3.9251   0.0000   0.0000   0.0000   0.2845
  12.250   1.5159   0.03738   0.03058  -0.0797  0.2103  1.0001  -4.0032   0.0000   0.0000   0.0000   0.2827
  12.500   1.5124   0.03983   0.03297  -0.0777  0.1907  1.0001  -4.0797   0.0000   0.0000   0.0000   0.2809
  12.750   1.5080   0.04247   0.03554  -0.0758  0.1719  1.0001  -4.1520   0.0000   0.0000   0.0000   0.2793
  13.000   1.5030   0.04528   0.03828  -0.0740  0.1544  1.0001  -4.2211   0.0000   0.0000   0.0000   0.2777
  13.250   1.4976   0.04822   0.04115  -0.0723  0.1385  1.0001  -4.2876   0.0000   0.0000   0.0000   0.2763
  13.500   1.4925   0.05124   0.04413  -0.0708  0.1247  1.0001  -4.3534   0.0000   0.0000   0.0000   0.2749
  13.750   1.4871   0.05438   0.04722  -0.0695  0.1133  1.0001  -4.4171   0.0000   0.0000   0.0000   0.2736
  14.000   1.4828   0.05750   0.05032  -0.0683  0.1033  1.0001  -4.4855   0.0000   0.0000   0.0000   0.2724
  14.250   1.4782   0.06071   0.05351  -0.0672  0.0954  1.0001  -4.5561   0.0000   0.0000   0.0000   0.2713
  14.500   1.4742   0.06391   0.05670  -0.0663  0.0887  1.0001  -4.6285   0.0000   0.0000   0.0000   0.2703
  14.750   1.4713   0.06707   0.05987  -0.0655  0.0827  1.0001  -4.7045   0.0000   0.0000   0.0000   0.2693
  15.000   1.4693   0.07017   0.06300  -0.0647  0.0774  1.0001  -4.7832   0.0000   0.0000   0.0000   0.2683
  15.250   1.4675   0.07326   0.06614  -0.0641  0.0728  1.0001  -4.8620   0.0000   0.0000   0.0000   0.2674
  15.500   1.4657   0.07635   0.06924  -0.0635  0.0690  1.0001  -4.9413   0.0000   0.0000   0.0000   0.2665
  15.750   1.4649   0.07936   0.07227  -0.0630  0.0654  1.0001  -5.0253   0.0000   0.0000   0.0000   0.2656
  16.000   1.4652   0.08229   0.07527  -0.0626  0.0620  1.0001  -5.1104   0.0000   0.0000   0.0000   0.2647
  16.250   1.4658   0.08505   0.07799  -0.0621  0.0593  1.0001  -5.2055   0.0000   0.0000   0.0000   0.2638
  16.500   1.4672   0.08793   0.08100  -0.0618  0.0564  1.0001  -5.3016   0.0000   0.0000   0.0000   0.2630
  16.750   1.4702   0.09033   0.08335  -0.0613  0.0541  1.0001  -5.4139   0.0000   0.0000   0.0000   0.2620
  17.000   1.4715   0.09325   0.08642  -0.0611  0.0517  1.0001  -5.5084   0.0000   0.0000   0.0000   0.2613
  17.250   1.4773   0.09516   0.08823  -0.0605  0.0496  1.0001  -5.6390   0.0000   0.0000   0.0000   0.2602
  17.500   1.4776   0.09830   0.09158  -0.0606  0.0476  1.0001  -5.7246   0.0000   0.0000   0.0000   0.2596
  17.750   1.4821   0.10062   0.09392  -0.0604  0.0458  1.0001  -5.8428   0.0000   0.0000   0.0000   0.2588
  18.000   1.4897   0.10231   0.09560  -0.0597  0.0442  1.0001  -5.9757   0.0000   0.0000   0.0000   0.2576
  18.250   1.4904   0.10540   0.09888  -0.0600  0.0427  1.0001  -6.0617   0.0000   0.0000   0.0000   0.2571
  18.500   1.4957   0.10763   0.10113  -0.0599  0.0412  1.0001  -6.1851   0.0000   0.0000   0.0000   0.2563
  18.750   1.5036   0.10928   0.10278  -0.0594  0.0398  1.0001  -6.3334   0.0000   0.0000   0.0000   0.2552
  19.000   1.5012   0.11292   0.10665  -0.0601  0.0387  1.0001  -6.4073   0.0000   0.0000   0.0000   0.2551
  19.250   1.5024   0.11592   0.10976  -0.0606  0.0376  1.0001  -6.5097   0.0000   0.0000   0.0000   0.2548
  19.500   1.5127   0.11716   0.11096  -0.0602  0.0364  1.0001  -6.6802   0.0000   0.0000   0.0000   0.2536
  19.750   1.5145   0.12000   0.11394  -0.0605  0.0356  1.0001  -6.7770   0.0000   0.0000   0.0000   0.2531
  20.000   1.5079   0.12450   0.11869  -0.0620  0.0349  1.0001  -6.8118   0.0000   0.0000   0.0000   0.2536


