xflr5 v6.61

 Calculated polar for: QX0026 v40

 1 1 Reynolds number fixed          Mach number fixed         

 xtrf =   1.000 (top)        1.000 (bottom)
 Mach =   0.000     Re =     0.500 e 6     Ncrit =   9.000

  alpha     CL        CD       CDp       Cm    Top Xtr Bot Xtr   Cpmin    Chinge    XCp    
 ------- -------- --------- --------- -------- ------- ------- -------- --------- ---------
  -5.000   0.0128   0.01274   0.00585  -0.1218  0.7678  0.0408  -2.5448   0.0000   0.0000   0.0000  10.0110
  -4.500   0.0688   0.01206   0.00514  -0.1220  0.7618  0.0461  -2.2364   0.0000   0.0000   0.0000   2.0689
  -4.000   0.1254   0.01152   0.00455  -0.1223  0.7565  0.0538  -1.9666   0.0000   0.0000   0.0000   1.2468
  -3.500   0.1819   0.01093   0.00398  -0.1227  0.7508  0.0670  -1.7019   0.0000   0.0000   0.0000   0.9369
  -3.000   0.2387   0.01051   0.00364  -0.1231  0.7442  0.0919  -1.4399   0.0000   0.0000   0.0000   0.7733
  -2.500   0.2957   0.01006   0.00335  -0.1235  0.7380  0.1493  -1.2036   0.0000   0.0000   0.0000   0.6726
  -2.000   0.3523   0.00966   0.00320  -0.1240  0.7312  0.2260  -0.9767   0.0000   0.0000   0.0000   0.6050
  -1.500   0.4087   0.00924   0.00314  -0.1245  0.7244  0.3472  -0.7599   0.0000   0.0000   0.0000   0.5561
  -1.000   0.4653   0.00885   0.00307  -0.1249  0.7178  0.4768  -0.7925   0.0000   0.0000   0.0000   0.5188
  -0.500   0.5202   0.00842   0.00311  -0.1248  0.7100  0.6312  -0.8300   0.0000   0.0000   0.0000   0.4895
   0.000   0.5736   0.00810   0.00316  -0.1241  0.7018  0.7636  -0.8678   0.0000   0.0000   0.0000   0.4651
   0.500   0.6228   0.00782   0.00317  -0.1222  0.6939  0.8841  -0.9110   0.0000   0.0000   0.0000   0.4442
   1.000   0.6919   0.00768   0.00304  -0.1247  0.6857  1.0001  -0.9660   0.0000   0.0000   0.0000   0.4275
   1.500   0.7484   0.00775   0.00301  -0.1249  0.6762  1.0001  -1.0141   0.0000   0.0000   0.0000   0.4136
   2.000   0.8044   0.00786   0.00302  -0.1251  0.6652  1.0001  -1.0652   0.0000   0.0000   0.0000   0.4015
   2.500   0.8600   0.00799   0.00311  -0.1252  0.6536  1.0001  -1.1238   0.0000   0.0000   0.0000   0.3909
   3.000   0.9155   0.00812   0.00322  -0.1253  0.6422  1.0001  -1.1829   0.0000   0.0000   0.0000   0.3816
   3.500   0.9704   0.00824   0.00332  -0.1252  0.6282  1.0001  -1.2420   0.0000   0.0000   0.0000   0.3732
   4.000   1.0247   0.00840   0.00344  -0.1251  0.6127  1.0001  -1.3172   0.0000   0.0000   0.0000   0.3656
   4.500   1.0785   0.00860   0.00364  -0.1249  0.5964  1.0001  -1.3961   0.0000   0.0000   0.0000   0.3587
   5.000   1.1311   0.00888   0.00388  -0.1245  0.5773  1.0001  -1.5251   0.0000   0.0000   0.0000   0.3523
   5.500   1.1825   0.00921   0.00419  -0.1239  0.5550  1.0001  -1.6584   0.0000   0.0000   0.0000   0.3463
   6.000   1.2320   0.00961   0.00455  -0.1230  0.5292  1.0001  -1.7921   0.0000   0.0000   0.0000   0.3407
   6.500   1.2789   0.01015   0.00501  -0.1217  0.4991  1.0001  -1.9244   0.0000   0.0000   0.0000   0.3353
   7.000   1.3216   0.01086   0.00561  -0.1197  0.4615  1.0001  -2.0874   0.0000   0.0000   0.0000   0.3300
   7.500   1.3597   0.01178   0.00637  -0.1170  0.4204  1.0001  -2.3195   0.0000   0.0000   0.0000   0.3248
   8.000   1.3900   0.01296   0.00736  -0.1131  0.3746  1.0001  -2.5392   0.0000   0.0000   0.0000   0.3193
   8.500   1.4135   0.01428   0.00852  -0.1082  0.3303  1.0001  -2.7467   0.0000   0.0000   0.0000   0.3137
   9.000   1.4333   0.01603   0.01009  -0.1034  0.2903  1.0001  -2.9483   0.0000   0.0000   0.0000   0.3085
   9.500   1.4546   0.01794   0.01187  -0.0994  0.2493  1.0001  -3.1574   0.0000   0.0000   0.0000   0.3039
  10.000   1.4705   0.02040   0.01416  -0.0953  0.2149  1.0001  -3.3538   0.0000   0.0000   0.0000   0.2994
  10.500   1.4880   0.02292   0.01655  -0.0917  0.1774  1.0001  -3.5709   0.0000   0.0000   0.0000   0.2954
  11.500   1.5148   0.02886   0.02231  -0.0847  0.1198  1.0001  -4.0209   0.0000   0.0000   0.0000   0.2878
  12.000   1.5235   0.03235   0.02569  -0.0812  0.0953  1.0001  -4.2336   0.0000   0.0000   0.0000   0.2842
  12.500   1.5326   0.03590   0.02924  -0.0780  0.0805  1.0001  -4.4493   0.0000   0.0000   0.0000   0.2808
  13.000   1.5437   0.03946   0.03281  -0.0753  0.0668  1.0001  -4.6748   0.0000   0.0000   0.0000   0.2777
  13.500   1.5515   0.04349   0.03687  -0.0727  0.0564  1.0001  -4.8880   0.0000   0.0000   0.0000   0.2747
  14.000   1.5564   0.04801   0.04145  -0.0704  0.0480  1.0001  -5.0977   0.0000   0.0000   0.0000   0.2721
  14.500   1.5605   0.05280   0.04635  -0.0684  0.0403  1.0001  -5.3178   0.0000   0.0000   0.0000   0.2696
  15.000   1.5610   0.05821   0.05178  -0.0667  0.0345  1.0001  -5.5392   0.0000   0.0000   0.0000   0.2674
  15.500   1.5581   0.06423   0.05796  -0.0654  0.0304  1.0001  -5.7464   0.0000   0.0000   0.0000   0.2654
  16.000   1.5580   0.07017   0.06407  -0.0645  0.0279  1.0001  -5.9699   0.0000   0.0000   0.0000   0.2637
  16.500   1.5499   0.07731   0.07136  -0.0640  0.0263  1.0001  -6.1502   0.0000   0.0000   0.0000   0.2625
  17.000   1.5460   0.08409   0.07833  -0.0640  0.0249  1.0001  -6.3510   0.0000   0.0000   0.0000   0.2614
  17.500   1.5379   0.09164   0.08605  -0.0645  0.0238  1.0001  -6.5286   0.0000   0.0000   0.0000   0.2607
  18.000   1.5249   0.10005   0.09462  -0.0655  0.0229  1.0001  -6.6687   0.0000   0.0000   0.0000   0.2605
  18.500   1.5181   0.10770   0.10248  -0.0667  0.0220  1.0001  -6.8409   0.0000   0.0000   0.0000   0.2603
  19.000   1.5101   0.11569   0.11065  -0.0685  0.0212  1.0001  -7.0032   0.0000   0.0000   0.0000   0.2604
  19.500   1.5010   0.12395   0.11905  -0.0708  0.0204  1.0001  -7.1544   0.0000   0.0000   0.0000   0.2610
  20.000   1.4924   0.13205   0.12729  -0.0733  0.0197  1.0001  -7.3053   0.0000   0.0000   0.0000   0.2616


