xflr5 v6.61

 Calculated polar for: QX0026 thickness=13.65

 1 1 Reynolds number fixed          Mach number fixed         

 xtrf =   1.000 (top)        1.000 (bottom)
 Mach =   0.000     Re =     1.000 e 6     Ncrit =   9.000

  alpha     CL        CD       CDp       Cm    Top Xtr Bot Xtr   Cpmin    Chinge    XCp    
 ------- -------- --------- --------- -------- ------- ------- -------- --------- ---------
 -10.000  -0.4981   0.01739   0.01241  -0.1286  0.7908  0.0177  -6.9481   0.0000   0.0000   0.0000  -0.0265
  -9.750  -0.4721   0.01685   0.01179  -0.1288  0.7874  0.0180  -6.6961   0.0000   0.0000   0.0000  -0.0412
  -9.500  -0.4460   0.01633   0.01118  -0.1289  0.7843  0.0185  -6.4485   0.0000   0.0000   0.0000  -0.0577
  -9.250  -0.4195   0.01585   0.01060  -0.1290  0.7815  0.0190  -6.2031   0.0000   0.0000   0.0000  -0.0765
  -9.000  -0.3926   0.01540   0.01007  -0.1291  0.7783  0.0194  -5.9598   0.0000   0.0000   0.0000  -0.0984
  -8.750  -0.3654   0.01502   0.00959  -0.1292  0.7754  0.0197  -5.7182   0.0000   0.0000   0.0000  -0.1237
  -8.500  -0.3408   0.01402   0.00846  -0.1292  0.7727  0.0204  -5.5180   0.0000   0.0000   0.0000  -0.1497
  -8.250  -0.3137   0.01357   0.00799  -0.1294  0.7696  0.0209  -5.2790   0.0000   0.0000   0.0000  -0.1838
  -8.000  -0.2862   0.01321   0.00760  -0.1295  0.7667  0.0215  -5.0410   0.0000   0.0000   0.0000  -0.2251
  -7.750  -0.2586   0.01288   0.00719  -0.1296  0.7641  0.0221  -4.8097   0.0000   0.0000   0.0000  -0.2751
  -7.500  -0.2308   0.01255   0.00679  -0.1298  0.7614  0.0228  -4.5834   0.0000   0.0000   0.0000  -0.3377
  -7.250  -0.2026   0.01227   0.00645  -0.1299  0.7585  0.0233  -4.3620   0.0000   0.0000   0.0000  -0.4188
  -7.000  -0.1758   0.01167   0.00581  -0.1300  0.7558  0.0243  -4.1726   0.0000   0.0000   0.0000  -0.5202
  -6.750  -0.1477   0.01144   0.00554  -0.1302  0.7533  0.0252  -3.9638   0.0000   0.0000   0.0000  -0.6663
  -6.500  -0.1193   0.01120   0.00527  -0.1304  0.7506  0.0262  -3.7626   0.0000   0.0000   0.0000  -0.8834
  -6.250  -0.0909   0.01097   0.00499  -0.1306  0.7477  0.0270  -3.5670   0.0000   0.0000   0.0000  -1.2376
  -6.000  -0.0631   0.01056   0.00454  -0.1307  0.7451  0.0282  -3.3825   0.0000   0.0000   0.0000  -1.8917
  -5.750  -0.0347   0.01035   0.00430  -0.1309  0.7427  0.0293  -3.1898   0.0000   0.0000   0.0000  -3.6450
  -5.500  -0.0060   0.01015   0.00408  -0.1311  0.7399  0.0307  -3.0015   0.0000   0.0000   0.0000  -22.1659
  -5.250   0.0224   0.00989   0.00379  -0.1313  0.7371  0.0322  -2.8201   0.0000   0.0000   0.0000   6.2703
  -5.000   0.0510   0.00970   0.00358  -0.1315  0.7345  0.0340  -2.6445   0.0000   0.0000   0.0000   2.8958
  -4.750   0.0798   0.00957   0.00341  -0.1317  0.7319  0.0357  -2.4813   0.0000   0.0000   0.0000   1.9411
  -4.500   0.1084   0.00931   0.00316  -0.1319  0.7290  0.0380  -2.3235   0.0000   0.0000   0.0000   1.4956
  -4.250   0.1373   0.00917   0.00300  -0.1321  0.7260  0.0404  -2.1651   0.0000   0.0000   0.0000   1.2337
  -4.000   0.1659   0.00899   0.00281  -0.1323  0.7234  0.0437  -2.0110   0.0000   0.0000   0.0000   1.0638
  -3.750   0.1948   0.00884   0.00265  -0.1326  0.7205  0.0472  -1.8601   0.0000   0.0000   0.0000   0.9434
  -3.250   0.2525   0.00856   0.00237  -0.1330  0.7145  0.0568  -1.5834   0.0000   0.0000   0.0000   0.7850
  -3.000   0.2813   0.00842   0.00225  -0.1332  0.7118  0.0646  -1.4530   0.0000   0.0000   0.0000   0.7304
  -2.750   0.3102   0.00826   0.00214  -0.1335  0.7086  0.0755  -1.3252   0.0000   0.0000   0.0000   0.6858
  -2.500   0.3389   0.00809   0.00204  -0.1337  0.7054  0.0931  -1.2002   0.0000   0.0000   0.0000   0.6489
  -2.250   0.3677   0.00794   0.00195  -0.1340  0.7026  0.1189  -1.0864   0.0000   0.0000   0.0000   0.6179
  -2.000   0.3964   0.00777   0.00189  -0.1343  0.6994  0.1509  -0.9766   0.0000   0.0000   0.0000   0.5914
  -1.750   0.4251   0.00760   0.00184  -0.1346  0.6961  0.1877  -0.8691   0.0000   0.0000   0.0000   0.5684
  -1.500   0.4539   0.00748   0.00180  -0.1348  0.6930  0.2235  -0.7904   0.0000   0.0000   0.0000   0.5484
  -1.250   0.4827   0.00737   0.00178  -0.1351  0.6899  0.2590  -0.8084   0.0000   0.0000   0.0000   0.5307
  -1.000   0.5115   0.00724   0.00176  -0.1354  0.6863  0.2962  -0.8269   0.0000   0.0000   0.0000   0.5149
  -0.750   0.5402   0.00712   0.00175  -0.1356  0.6830  0.3382  -0.8458   0.0000   0.0000   0.0000   0.5009
  -0.500   0.5688   0.00701   0.00175  -0.1359  0.6798  0.3870  -0.8652   0.0000   0.0000   0.0000   0.4883
  -0.250   0.5974   0.00685   0.00176  -0.1362  0.6760  0.4446  -0.8851   0.0000   0.0000   0.0000   0.4769
   0.000   0.6258   0.00669   0.00178  -0.1364  0.6724  0.5164  -0.9054   0.0000   0.0000   0.0000   0.4665
   0.250   0.6540   0.00652   0.00182  -0.1366  0.6689  0.6017  -0.9261   0.0000   0.0000   0.0000   0.4570
   0.500   0.6819   0.00635   0.00188  -0.1367  0.6648  0.6824  -0.9473   0.0000   0.0000   0.0000   0.4482
   0.750   0.7097   0.00626   0.00192  -0.1366  0.6610  0.7424  -0.9689   0.0000   0.0000   0.0000   0.4400
   1.250   0.7603   0.00596   0.00203  -0.1353  0.6525  0.8932  -1.0112   0.0000   0.0000   0.0000   0.4248
   1.500   0.7942   0.00585   0.00201  -0.1364  0.6484  1.0001  -1.0383   0.0000   0.0000   0.0000   0.4182
   1.750   0.8227   0.00589   0.00204  -0.1366  0.6435  1.0001  -1.0629   0.0000   0.0000   0.0000   0.4122
   2.000   0.8508   0.00597   0.00206  -0.1367  0.6389  1.0001  -1.0880   0.0000   0.0000   0.0000   0.4065
   2.250   0.8793   0.00601   0.00210  -0.1369  0.6335  1.0001  -1.1141   0.0000   0.0000   0.0000   0.4012
   2.500   0.9073   0.00610   0.00214  -0.1370  0.6283  1.0001  -1.1408   0.0000   0.0000   0.0000   0.3962
   2.750   0.9356   0.00615   0.00220  -0.1371  0.6224  1.0001  -1.1686   0.0000   0.0000   0.0000   0.3915
   3.000   0.9633   0.00625   0.00225  -0.1372  0.6166  1.0001  -1.1971   0.0000   0.0000   0.0000   0.3870
   3.250   0.9914   0.00631   0.00231  -0.1373  0.6098  1.0001  -1.2271   0.0000   0.0000   0.0000   0.3828
   3.500   1.0190   0.00641   0.00238  -0.1373  0.6031  1.0001  -1.2581   0.0000   0.0000   0.0000   0.3787
   4.000   1.0739   0.00661   0.00255  -0.1374  0.5874  1.0001  -1.3243   0.0000   0.0000   0.0000   0.3712
   4.250   1.1011   0.00673   0.00264  -0.1373  0.5786  1.0001  -1.3598   0.0000   0.0000   0.0000   0.3677
   4.500   1.1279   0.00686   0.00274  -0.1372  0.5690  1.0001  -1.3970   0.0000   0.0000   0.0000   0.3643
   4.750   1.1544   0.00700   0.00286  -0.1371  0.5582  1.0001  -1.4363   0.0000   0.0000   0.0000   0.3611
   5.000   1.1805   0.00717   0.00299  -0.1369  0.5463  1.0001  -1.4778   0.0000   0.0000   0.0000   0.3580
   5.250   1.2061   0.00736   0.00314  -0.1366  0.5330  1.0001  -1.5221   0.0000   0.0000   0.0000   0.3549
   5.500   1.2310   0.00759   0.00330  -0.1362  0.5185  1.0001  -1.5708   0.0000   0.0000   0.0000   0.3519
   5.750   1.2556   0.00783   0.00350  -0.1357  0.5024  1.0001  -1.6290   0.0000   0.0000   0.0000   0.3491
   6.000   1.2790   0.00812   0.00372  -0.1351  0.4854  1.0001  -1.7027   0.0000   0.0000   0.0000   0.3462
   6.250   1.3020   0.00844   0.00396  -0.1343  0.4669  1.0001  -1.7821   0.0000   0.0000   0.0000   0.3434
   6.500   1.3242   0.00879   0.00423  -0.1335  0.4472  1.0001  -1.8654   0.0000   0.0000   0.0000   0.3407
   6.750   1.3457   0.00918   0.00453  -0.1325  0.4271  1.0001  -1.9524   0.0000   0.0000   0.0000   0.3380
   7.000   1.3666   0.00957   0.00484  -0.1315  0.4079  1.0001  -2.0447   0.0000   0.0000   0.0000   0.3354
   7.250   1.3868   0.00999   0.00518  -0.1303  0.3892  1.0001  -2.1443   0.0000   0.0000   0.0000   0.3328
   7.500   1.4067   0.01040   0.00552  -0.1291  0.3706  1.0001  -2.2514   0.0000   0.0000   0.0000   0.3302
   7.750   1.4253   0.01085   0.00589  -0.1277  0.3519  1.0001  -2.3607   0.0000   0.0000   0.0000   0.3277
   8.000   1.4413   0.01134   0.00630  -0.1258  0.3330  1.0001  -2.4683   0.0000   0.0000   0.0000   0.3250
   8.250   1.4553   0.01188   0.00676  -0.1236  0.3137  1.0001  -2.5726   0.0000   0.0000   0.0000   0.3222
   8.500   1.4685   0.01250   0.00729  -0.1213  0.2937  1.0001  -2.6799   0.0000   0.0000   0.0000   0.3195
   8.750   1.4808   0.01320   0.00789  -0.1190  0.2734  1.0001  -2.7891   0.0000   0.0000   0.0000   0.3169
   9.000   1.4922   0.01398   0.00858  -0.1167  0.2528  1.0001  -2.8969   0.0000   0.0000   0.0000   0.3143
   9.250   1.5029   0.01484   0.00935  -0.1145  0.2328  1.0001  -3.0040   0.0000   0.0000   0.0000   0.3118
   9.500   1.5128   0.01580   0.01022  -0.1122  0.2131  1.0001  -3.1099   0.0000   0.0000   0.0000   0.3094
   9.750   1.5220   0.01685   0.01118  -0.1101  0.1940  1.0001  -3.2201   0.0000   0.0000   0.0000   0.3071
  10.000   1.5306   0.01799   0.01222  -0.1079  0.1755  1.0001  -3.3310   0.0000   0.0000   0.0000   0.3049
  10.250   1.5392   0.01917   0.01333  -0.1059  0.1581  1.0001  -3.4432   0.0000   0.0000   0.0000   0.3027
  10.500   1.5473   0.02042   0.01450  -0.1038  0.1418  1.0001  -3.5545   0.0000   0.0000   0.0000   0.3006
  10.750   1.5547   0.02176   0.01576  -0.1018  0.1261  1.0001  -3.6648   0.0000   0.0000   0.0000   0.2985
  11.000   1.5616   0.02315   0.01708  -0.0999  0.1117  1.0001  -3.7743   0.0000   0.0000   0.0000   0.2965
  11.250   1.5684   0.02458   0.01846  -0.0980  0.0990  1.0001  -3.8879   0.0000   0.0000   0.0000   0.2945
  11.500   1.5751   0.02605   0.01987  -0.0961  0.0880  1.0001  -4.0059   0.0000   0.0000   0.0000   0.2926
  11.750   1.5823   0.02748   0.02127  -0.0944  0.0785  1.0001  -4.1271   0.0000   0.0000   0.0000   0.2907
  12.000   1.5886   0.02902   0.02278  -0.0926  0.0702  1.0001  -4.2457   0.0000   0.0000   0.0000   0.2889
  12.250   1.5957   0.03051   0.02427  -0.0910  0.0631  1.0001  -4.3686   0.0000   0.0000   0.0000   0.2872
  12.500   1.6023   0.03206   0.02581  -0.0894  0.0570  1.0001  -4.4906   0.0000   0.0000   0.0000   0.2854
  12.750   1.6089   0.03364   0.02739  -0.0879  0.0519  1.0001  -4.6138   0.0000   0.0000   0.0000   0.2837
  13.000   1.6157   0.03525   0.02901  -0.0865  0.0476  1.0001  -4.7435   0.0000   0.0000   0.0000   0.2821
  13.250   1.6221   0.03694   0.03071  -0.0851  0.0440  1.0001  -4.8761   0.0000   0.0000   0.0000   0.2805
  13.500   1.6281   0.03868   0.03246  -0.0838  0.0407  1.0001  -5.0084   0.0000   0.0000   0.0000   0.2790
  13.750   1.6349   0.04038   0.03420  -0.0825  0.0379  1.0001  -5.1449   0.0000   0.0000   0.0000   0.2775
  14.000   1.6403   0.04226   0.03610  -0.0813  0.0354  1.0001  -5.2762   0.0000   0.0000   0.0000   0.2761
  14.250   1.6462   0.04412   0.03800  -0.0802  0.0332  1.0001  -5.4112   0.0000   0.0000   0.0000   0.2747
  14.500   1.6515   0.04609   0.04000  -0.0791  0.0312  1.0001  -5.5438   0.0000   0.0000   0.0000   0.2733
  14.750   1.6567   0.04808   0.04204  -0.0781  0.0295  1.0001  -5.6780   0.0000   0.0000   0.0000   0.2720
  15.000   1.6599   0.05029   0.04429  -0.0770  0.0280  1.0001  -5.8109   0.0000   0.0000   0.0000   0.2707
  15.250   1.6653   0.05234   0.04639  -0.0761  0.0266  1.0001  -5.9559   0.0000   0.0000   0.0000   0.2694
  15.500   1.6679   0.05471   0.04880  -0.0752  0.0253  1.0001  -6.0882   0.0000   0.0000   0.0000   0.2682
  15.750   1.6704   0.05714   0.05129  -0.0744  0.0242  1.0001  -6.2198   0.0000   0.0000   0.0000   0.2671
  16.000   1.6745   0.05942   0.05364  -0.0737  0.0232  1.0001  -6.3615   0.0000   0.0000   0.0000   0.2660
  16.250   1.6761   0.06200   0.05627  -0.0730  0.0222  1.0001  -6.4913   0.0000   0.0000   0.0000   0.2649
  16.500   1.6739   0.06504   0.05936  -0.0722  0.0213  1.0001  -6.5990   0.0000   0.0000   0.0000   0.2640
  16.750   1.6773   0.06749   0.06189  -0.0718  0.0207  1.0001  -6.7390   0.0000   0.0000   0.0000   0.2630
  17.000   1.6789   0.07020   0.06467  -0.0713  0.0200  1.0001  -6.8690   0.0000   0.0000   0.0000   0.2621
  17.250   1.6786   0.07316   0.06769  -0.0709  0.0193  1.0001  -6.9899   0.0000   0.0000   0.0000   0.2612
  17.500   1.6757   0.07649   0.07109  -0.0706  0.0188  1.0001  -7.0953   0.0000   0.0000   0.0000   0.2605
  17.750   1.6699   0.08023   0.07491  -0.0704  0.0182  1.0001  -7.1885   0.0000   0.0000   0.0000   0.2599
  18.000   1.6702   0.08322   0.07798  -0.0703  0.0178  1.0001  -7.3206   0.0000   0.0000   0.0000   0.2592
  18.250   1.6691   0.08642   0.08127  -0.0702  0.0173  1.0001  -7.4445   0.0000   0.0000   0.0000   0.2585
  18.500   1.6671   0.08980   0.08473  -0.0703  0.0169  1.0001  -7.5628   0.0000   0.0000   0.0000   0.2580
  18.750   1.6635   0.09342   0.08843  -0.0705  0.0164  1.0001  -7.6710   0.0000   0.0000   0.0000   0.2576
  19.000   1.6578   0.09738   0.09246  -0.0709  0.0160  1.0001  -7.7638   0.0000   0.0000   0.0000   0.2573
  19.250   1.6482   0.10194   0.09710  -0.0715  0.0156  1.0001  -7.8278   0.0000   0.0000   0.0000   0.2572
  19.500   1.6403   0.10628   0.10154  -0.0721  0.0153  1.0001  -7.9007   0.0000   0.0000   0.0000   0.2572
  19.750   1.6369   0.11000   0.10534  -0.0727  0.0150  1.0001  -8.0053   0.0000   0.0000   0.0000   0.2570
  20.000   1.6324   0.11393   0.10938  -0.0735  0.0147  1.0001  -8.1000   0.0000   0.0000   0.0000   0.2569


