xflr5 v6.61

 Calculated polar for: QX0026 thickness=13.65

 1 1 Reynolds number fixed          Mach number fixed         

 xtrf =   1.000 (top)        1.000 (bottom)
 Mach =   0.000     Re =     0.280 e 6     Ncrit =   9.000

  alpha     CL        CD       CDp       Cm    Top Xtr Bot Xtr   Cpmin    Chinge    XCp    
 ------- -------- --------- --------- -------- ------- ------- -------- --------- ---------
  -8.250  -0.2291   0.04174   0.03738  -0.1326  0.8491  0.0407  -3.5577   0.0000   0.0000   0.0000  -0.3552
  -8.000  -0.2100   0.03986   0.03556  -0.1329  0.8454  0.0411  -3.4177   0.0000   0.0000   0.0000  -0.4103
  -7.750  -0.1902   0.03852   0.03420  -0.1332  0.8415  0.0417  -3.2709   0.0000   0.0000   0.0000  -0.4798
  -7.500  -0.1877   0.03043   0.02517  -0.1357  0.8374  0.0395  -3.5526   0.0000   0.0000   0.0000  -0.5028
  -7.250  -0.1708   0.02687   0.02094  -0.1361  0.8333  0.0401  -3.5739   0.0000   0.0000   0.0000  -0.5787
  -7.000  -0.1491   0.02453   0.01799  -0.1361  0.8304  0.0407  -3.5259   0.0000   0.0000   0.0000  -0.6986
  -6.750  -0.1255   0.02288   0.01625  -0.1362  0.8265  0.0415  -3.3882   0.0000   0.0000   0.0000  -0.8755
  -6.500  -0.0999   0.02195   0.01524  -0.1362  0.8232  0.0426  -3.2346   0.0000   0.0000   0.0000  -1.1629
  -6.250  -0.0736   0.02096   0.01400  -0.1362  0.8206  0.0444  -3.1110   0.0000   0.0000   0.0000  -1.6640
  -6.000  -0.0482   0.01993   0.01268  -0.1360  0.8165  0.0462  -3.0024   0.0000   0.0000   0.0000  -2.6684
  -5.750  -0.0216   0.01916   0.01190  -0.1361  0.8135  0.0478  -2.8500   0.0000   0.0000   0.0000  -6.2589
  -5.500   0.0057   0.01844   0.01103  -0.1360  0.8109  0.0497  -2.7130   0.0000   0.0000   0.0000  24.8381
  -5.250   0.0319   0.01774   0.01022  -0.1359  0.8069  0.0519  -2.5812   0.0000   0.0000   0.0000   4.6270
  -5.000   0.0592   0.01726   0.00973  -0.1359  0.8040  0.0547  -2.4257   0.0000   0.0000   0.0000   2.6084
  -4.750   0.0868   0.01668   0.00903  -0.1359  0.8014  0.0576  -2.2963   0.0000   0.0000   0.0000   1.8568
  -4.500   0.1131   0.01625   0.00865  -0.1358  0.7974  0.0608  -2.1667   0.0000   0.0000   0.0000   1.4804
  -4.250   0.1405   0.01578   0.00817  -0.1358  0.7945  0.0648  -2.0367   0.0000   0.0000   0.0000   1.2390
  -4.000   0.1685   0.01540   0.00772  -0.1358  0.7920  0.0698  -1.9064   0.0000   0.0000   0.0000   1.0738
  -3.750   0.1949   0.01511   0.00746  -0.1357  0.7878  0.0753  -1.7796   0.0000   0.0000   0.0000   0.9606
  -3.500   0.2226   0.01474   0.00712  -0.1358  0.7848  0.0828  -1.6522   0.0000   0.0000   0.0000   0.8716
  -3.250   0.2508   0.01438   0.00679  -0.1359  0.7824  0.0923  -1.5347   0.0000   0.0000   0.0000   0.8015
  -3.000   0.2771   0.01413   0.00662  -0.1359  0.7780  0.1062  -1.4232   0.0000   0.0000   0.0000   0.7481
  -2.750   0.3051   0.01378   0.00637  -0.1360  0.7750  0.1304  -1.3088   0.0000   0.0000   0.0000   0.7022
  -2.500   0.3335   0.01340   0.00616  -0.1363  0.7725  0.1773  -1.1934   0.0000   0.0000   0.0000   0.6639
  -2.250   0.3597   0.01320   0.00619  -0.1363  0.7680  0.2358  -1.0900   0.0000   0.0000   0.0000   0.6332
  -2.000   0.3879   0.01297   0.00610  -0.1365  0.7650  0.2907  -0.9836   0.0000   0.0000   0.0000   0.6053
  -1.750   0.4162   0.01276   0.00603  -0.1367  0.7622  0.3461  -0.8786   0.0000   0.0000   0.0000   0.5810
  -1.500   0.4424   0.01262   0.00611  -0.1366  0.7578  0.4068  -0.7828   0.0000   0.0000   0.0000   0.5607
  -1.250   0.4702   0.01237   0.00607  -0.1366  0.7547  0.4830  -0.7905   0.0000   0.0000   0.0000   0.5420
  -1.000   0.4968   0.01213   0.00610  -0.1364  0.7515  0.5746  -0.8082   0.0000   0.0000   0.0000   0.5254
  -0.750   0.5211   0.01193   0.00624  -0.1356  0.7472  0.6749  -0.8249   0.0000   0.0000   0.0000   0.5106
  -0.500   0.5456   0.01167   0.00622  -0.1345  0.7442  0.7682  -0.8427   0.0000   0.0000   0.0000   0.4964
  -0.250   0.5656   0.01149   0.00629  -0.1322  0.7404  0.8631  -0.8582   0.0000   0.0000   0.0000   0.4832
   0.000   0.6085   0.01131   0.00618  -0.1349  0.7365  0.9957  -0.8864   0.0000   0.0000   0.0000   0.4707
   0.250   0.6388   0.01131   0.00605  -0.1354  0.7335  1.0001  -0.9084   0.0000   0.0000   0.0000   0.4606
   0.500   0.6653   0.01144   0.00613  -0.1353  0.7289  1.0001  -0.9283   0.0000   0.0000   0.0000   0.4516
   0.750   0.6936   0.01148   0.00609  -0.1355  0.7250  1.0001  -0.9502   0.0000   0.0000   0.0000   0.4431
   1.000   0.7232   0.01150   0.00600  -0.1358  0.7220  1.0001  -0.9737   0.0000   0.0000   0.0000   0.4352
   1.250   0.7491   0.01163   0.00612  -0.1355  0.7166  1.0001  -0.9950   0.0000   0.0000   0.0000   0.4280
   1.500   0.7786   0.01162   0.00603  -0.1358  0.7132  1.0001  -1.0197   0.0000   0.0000   0.0000   0.4212
   1.750   0.8052   0.01174   0.00613  -0.1356  0.7082  1.0001  -1.0428   0.0000   0.0000   0.0000   0.4149
   2.000   0.8338   0.01176   0.00610  -0.1358  0.7040  1.0001  -1.0682   0.0000   0.0000   0.0000   0.4089
   2.250   0.8617   0.01181   0.00612  -0.1358  0.6995  1.0001  -1.0940   0.0000   0.0000   0.0000   0.4034
   2.500   0.8891   0.01187   0.00615  -0.1357  0.6944  1.0001  -1.1202   0.0000   0.0000   0.0000   0.3981
   2.750   0.9181   0.01188   0.00611  -0.1359  0.6903  1.0001  -1.1486   0.0000   0.0000   0.0000   0.3932
   3.000   0.9444   0.01196   0.00619  -0.1357  0.6844  1.0001  -1.1759   0.0000   0.0000   0.0000   0.3885
   3.250   0.9736   0.01195   0.00614  -0.1359  0.6801  1.0001  -1.2066   0.0000   0.0000   0.0000   0.3840
   3.500   0.9996   0.01203   0.00624  -0.1356  0.6737  1.0001  -1.2362   0.0000   0.0000   0.0000   0.3798
   3.750   1.0277   0.01205   0.00624  -0.1356  0.6684  1.0001  -1.2687   0.0000   0.0000   0.0000   0.3758
   4.000   1.0545   0.01209   0.00628  -0.1354  0.6621  1.0001  -1.3018   0.0000   0.0000   0.0000   0.3719
   4.250   1.0810   0.01215   0.00635  -0.1352  0.6556  1.0001  -1.3364   0.0000   0.0000   0.0000   0.3682
   4.500   1.1094   0.01214   0.00630  -0.1352  0.6497  1.0001  -1.3745   0.0000   0.0000   0.0000   0.3647
   4.750   1.1344   0.01222   0.00642  -0.1347  0.6419  1.0001  -1.4117   0.0000   0.0000   0.0000   0.3613
   5.000   1.1606   0.01228   0.00649  -0.1344  0.6344  1.0001  -1.4525   0.0000   0.0000   0.0000   0.3580
   5.250   1.1878   0.01230   0.00649  -0.1343  0.6272  1.0001  -1.4974   0.0000   0.0000   0.0000   0.3549
   5.500   1.2128   0.01238   0.00659  -0.1338  0.6184  1.0001  -1.5445   0.0000   0.0000   0.0000   0.3518
   5.750   1.2374   0.01247   0.00672  -0.1332  0.6090  1.0001  -1.5982   0.0000   0.0000   0.0000   0.3487
   6.000   1.2619   0.01258   0.00684  -0.1326  0.5991  1.0001  -1.6670   0.0000   0.0000   0.0000   0.3458
   6.250   1.2860   0.01270   0.00698  -0.1319  0.5886  1.0001  -1.7451   0.0000   0.0000   0.0000   0.3430
   6.500   1.3096   0.01284   0.00713  -0.1312  0.5773  1.0001  -1.8281   0.0000   0.0000   0.0000   0.3402
   6.750   1.3326   0.01301   0.00729  -0.1303  0.5652  1.0001  -1.9156   0.0000   0.0000   0.0000   0.3375
   7.000   1.3550   0.01321   0.00747  -0.1294  0.5522  1.0001  -2.0085   0.0000   0.0000   0.0000   0.3348
   7.250   1.3753   0.01346   0.00775  -0.1281  0.5370  1.0001  -2.1050   0.0000   0.0000   0.0000   0.3320
   7.500   1.3948   0.01375   0.00800  -0.1266  0.5212  1.0001  -2.2077   0.0000   0.0000   0.0000   0.3293
   7.750   1.4127   0.01410   0.00833  -0.1250  0.5039  1.0001  -2.3112   0.0000   0.0000   0.0000   0.3266
   8.000   1.4292   0.01453   0.00869  -0.1231  0.4865  1.0001  -2.4177   0.0000   0.0000   0.0000   0.3239
   8.250   1.4439   0.01501   0.00914  -0.1209  0.4684  1.0001  -2.5230   0.0000   0.0000   0.0000   0.3211
   8.500   1.4560   0.01553   0.00963  -0.1183  0.4511  1.0001  -2.6231   0.0000   0.0000   0.0000   0.3182
   8.750   1.4662   0.01614   0.01019  -0.1155  0.4339  1.0001  -2.7233   0.0000   0.0000   0.0000   0.3153
   9.000   1.4761   0.01683   0.01085  -0.1128  0.4164  1.0001  -2.8260   0.0000   0.0000   0.0000   0.3125
   9.250   1.4847   0.01763   0.01161  -0.1100  0.3991  1.0001  -2.9261   0.0000   0.0000   0.0000   0.3098
   9.500   1.4927   0.01853   0.01247  -0.1074  0.3810  1.0001  -3.0254   0.0000   0.0000   0.0000   0.3072
   9.750   1.4999   0.01954   0.01345  -0.1048  0.3627  1.0001  -3.1233   0.0000   0.0000   0.0000   0.3047
  10.000   1.5060   0.02069   0.01455  -0.1023  0.3441  1.0001  -3.2220   0.0000   0.0000   0.0000   0.3023
  10.250   1.5110   0.02198   0.01578  -0.0998  0.3253  1.0001  -3.3209   0.0000   0.0000   0.0000   0.3000
  10.750   1.5189   0.02492   0.01862  -0.0950  0.2864  1.0001  -3.5137   0.0000   0.0000   0.0000   0.2955
  11.000   1.5217   0.02657   0.02021  -0.0927  0.2667  1.0001  -3.6069   0.0000   0.0000   0.0000   0.2934
  11.250   1.5235   0.02834   0.02192  -0.0905  0.2471  1.0001  -3.6975   0.0000   0.0000   0.0000   0.2914
  11.500   1.5248   0.03022   0.02374  -0.0883  0.2273  1.0001  -3.7864   0.0000   0.0000   0.0000   0.2894
  11.750   1.5254   0.03221   0.02567  -0.0862  0.2078  1.0001  -3.8772   0.0000   0.0000   0.0000   0.2875
  12.000   1.5250   0.03431   0.02770  -0.0841  0.1888  1.0001  -3.9665   0.0000   0.0000   0.0000   0.2857
  12.250   1.5238   0.03655   0.02987  -0.0821  0.1703  1.0001  -4.0528   0.0000   0.0000   0.0000   0.2839
  12.500   1.5219   0.03892   0.03217  -0.0801  0.1527  1.0001  -4.1365   0.0000   0.0000   0.0000   0.2822
  13.250   1.5152   0.04665   0.03973  -0.0751  0.1085  1.0001  -4.3796   0.0000   0.0000   0.0000   0.2775
  13.500   1.5132   0.04934   0.04240  -0.0737  0.0975  1.0001  -4.4603   0.0000   0.0000   0.0000   0.2761
  13.750   1.5103   0.05221   0.04524  -0.0724  0.0888  1.0001  -4.5385   0.0000   0.0000   0.0000   0.2748
  14.000   1.5078   0.05512   0.04815  -0.0712  0.0816  1.0001  -4.6220   0.0000   0.0000   0.0000   0.2736
  14.250   1.5057   0.05806   0.05111  -0.0702  0.0755  1.0001  -4.7069   0.0000   0.0000   0.0000   0.2724
  14.500   1.5029   0.06113   0.05419  -0.0692  0.0704  1.0001  -4.7885   0.0000   0.0000   0.0000   0.2714
  14.750   1.5019   0.06406   0.05718  -0.0684  0.0657  1.0001  -4.8767   0.0000   0.0000   0.0000   0.2703
  15.000   1.5004   0.06710   0.06028  -0.0677  0.0617  1.0001  -4.9621   0.0000   0.0000   0.0000   0.2693
  15.250   1.4969   0.07043   0.06363  -0.0671  0.0586  1.0001  -5.0387   0.0000   0.0000   0.0000   0.2685
  15.500   1.4957   0.07354   0.06681  -0.0666  0.0555  1.0001  -5.1251   0.0000   0.0000   0.0000   0.2676
  15.750   1.4931   0.07685   0.07017  -0.0662  0.0529  1.0001  -5.2031   0.0000   0.0000   0.0000   0.2669
  16.000   1.4915   0.08007   0.07345  -0.0659  0.0505  1.0001  -5.2879   0.0000   0.0000   0.0000   0.2661
  16.250   1.4889   0.08342   0.07685  -0.0656  0.0484  1.0001  -5.3730   0.0000   0.0000   0.0000   0.2655
  16.500   1.4882   0.08663   0.08015  -0.0655  0.0462  1.0001  -5.4671   0.0000   0.0000   0.0000   0.2648
  16.750   1.4853   0.09003   0.08354  -0.0654  0.0446  1.0001  -5.5516   0.0000   0.0000   0.0000   0.2642
  17.000   1.4857   0.09317   0.08681  -0.0654  0.0427  1.0001  -5.6473   0.0000   0.0000   0.0000   0.2637
  17.250   1.4851   0.09635   0.09004  -0.0655  0.0412  1.0001  -5.7424   0.0000   0.0000   0.0000   0.2631
  17.500   1.4845   0.09939   0.09310  -0.0654  0.0399  1.0001  -5.8365   0.0000   0.0000   0.0000   0.2625
  17.750   1.4848   0.10258   0.09642  -0.0656  0.0384  1.0001  -5.9300   0.0000   0.0000   0.0000   0.2621
  18.000   1.4853   0.10566   0.09954  -0.0659  0.0371  1.0001  -6.0307   0.0000   0.0000   0.0000   0.2616
  18.250   1.4875   0.10821   0.10206  -0.0658  0.0359  1.0001  -6.1429   0.0000   0.0000   0.0000   0.2609
  18.500   1.4871   0.11164   0.10567  -0.0664  0.0347  1.0001  -6.2280   0.0000   0.0000   0.0000   0.2607
  18.750   1.4882   0.11471   0.10882  -0.0669  0.0336  1.0001  -6.3288   0.0000   0.0000   0.0000   0.2603
  19.000   1.4913   0.11726   0.11138  -0.0671  0.0327  1.0001  -6.4554   0.0000   0.0000   0.0000   0.2598
  19.250   1.4962   0.11939   0.11352  -0.0670  0.0317  1.0001  -6.5887   0.0000   0.0000   0.0000   0.2590
  19.500   1.4948   0.12297   0.11728  -0.0680  0.0309  1.0001  -6.6727   0.0000   0.0000   0.0000   0.2590
  19.750   1.4950   0.12625   0.12068  -0.0689  0.0300  1.0001  -6.7708   0.0000   0.0000   0.0000   0.2589
  20.000   1.4972   0.12910   0.12358  -0.0696  0.0292  1.0001  -6.8891   0.0000   0.0000   0.0000   0.2587


