xflr5 v6.61

 Calculated polar for: QX0026 thickness=13.65

 1 1 Reynolds number fixed          Mach number fixed         

 xtrf =   1.000 (top)        1.000 (bottom)
 Mach =   0.000     Re =     0.640 e 6     Ncrit =   9.000

  alpha     CL        CD       CDp       Cm    Top Xtr Bot Xtr   Cpmin    Chinge    XCp    
 ------- -------- --------- --------- -------- ------- ------- -------- --------- ---------
 -10.000  -0.4703   0.02431   0.01966  -0.1297  0.8151  0.0205  -6.4102   0.0000   0.0000   0.0000  -0.0445
  -9.750  -0.4474   0.02339   0.01861  -0.1299  0.8120  0.0209  -6.1950   0.0000   0.0000   0.0000  -0.0593
  -9.500  -0.4236   0.02255   0.01767  -0.1301  0.8083  0.0214  -5.9782   0.0000   0.0000   0.0000  -0.0765
  -9.250  -0.3998   0.02159   0.01655  -0.1303  0.8048  0.0220  -5.7778   0.0000   0.0000   0.0000  -0.0955
  -9.000  -0.3762   0.02048   0.01520  -0.1304  0.8019  0.0226  -5.5991   0.0000   0.0000   0.0000  -0.1167
  -8.750  -0.3517   0.01945   0.01394  -0.1305  0.7984  0.0231  -5.4205   0.0000   0.0000   0.0000  -0.1417
  -8.500  -0.3279   0.01814   0.01242  -0.1306  0.7952  0.0236  -5.2527   0.0000   0.0000   0.0000  -0.1694
  -8.250  -0.3028   0.01727   0.01147  -0.1307  0.7925  0.0242  -5.0454   0.0000   0.0000   0.0000  -0.2036
  -8.000  -0.2763   0.01672   0.01088  -0.1308  0.7892  0.0248  -4.8256   0.0000   0.0000   0.0000  -0.2465
  -7.750  -0.2496   0.01617   0.01023  -0.1309  0.7861  0.0255  -4.6151   0.0000   0.0000   0.0000  -0.2988
  -7.500  -0.2227   0.01562   0.00955  -0.1310  0.7835  0.0263  -4.4117   0.0000   0.0000   0.0000  -0.3643
  -7.250  -0.1952   0.01523   0.00903  -0.1311  0.7806  0.0271  -4.2055   0.0000   0.0000   0.0000  -0.4501
  -7.000  -0.1692   0.01440   0.00816  -0.1311  0.7774  0.0281  -4.0202   0.0000   0.0000   0.0000  -0.5566
  -6.750  -0.1417   0.01403   0.00775  -0.1313  0.7747  0.0291  -3.8261   0.0000   0.0000   0.0000  -0.7125
  -6.500  -0.1140   0.01365   0.00729  -0.1314  0.7722  0.0302  -3.6435   0.0000   0.0000   0.0000  -0.9452
  -6.250  -0.0861   0.01329   0.00686  -0.1315  0.7691  0.0312  -3.4650   0.0000   0.0000   0.0000  -1.3304
  -6.000  -0.0591   0.01270   0.00624  -0.1315  0.7662  0.0324  -3.2934   0.0000   0.0000   0.0000  -2.0503
  -5.750  -0.0310   0.01242   0.00593  -0.1317  0.7637  0.0338  -3.1082   0.0000   0.0000   0.0000  -4.1302
  -5.500  -0.0027   0.01219   0.00563  -0.1318  0.7609  0.0355  -2.9297   0.0000   0.0000   0.0000  -49.3961
  -5.250   0.0249   0.01176   0.00520  -0.1320  0.7579  0.0372  -2.7595   0.0000   0.0000   0.0000   5.7074
  -5.000   0.0532   0.01151   0.00492  -0.1321  0.7552  0.0391  -2.5884   0.0000   0.0000   0.0000   2.8006
  -4.750   0.0816   0.01125   0.00459  -0.1323  0.7529  0.0412  -2.4374   0.0000   0.0000   0.0000   1.9120
  -4.500   0.1097   0.01098   0.00435  -0.1325  0.7497  0.0438  -2.2827   0.0000   0.0000   0.0000   1.4860
  -4.250   0.1381   0.01073   0.00408  -0.1326  0.7467  0.0468  -2.1333   0.0000   0.0000   0.0000   1.2317
  -4.000   0.1668   0.01054   0.00385  -0.1328  0.7441  0.0502  -1.9833   0.0000   0.0000   0.0000   1.0630
  -3.750   0.1952   0.01031   0.00363  -0.1330  0.7413  0.0543  -1.8381   0.0000   0.0000   0.0000   0.9445
  -3.500   0.2237   0.01010   0.00344  -0.1332  0.7380  0.0596  -1.6992   0.0000   0.0000   0.0000   0.8561
  -3.250   0.2524   0.00991   0.00325  -0.1334  0.7351  0.0664  -1.5701   0.0000   0.0000   0.0000   0.7872
  -3.000   0.2812   0.00976   0.00308  -0.1337  0.7326  0.0758  -1.4430   0.0000   0.0000   0.0000   0.7322
  -2.750   0.3095   0.00954   0.00295  -0.1338  0.7291  0.0909  -1.3190   0.0000   0.0000   0.0000   0.6880
  -2.500   0.3381   0.00932   0.00282  -0.1341  0.7259  0.1164  -1.1967   0.0000   0.0000   0.0000   0.6512
  -2.250   0.3667   0.00911   0.00272  -0.1344  0.7232  0.1539  -1.0846   0.0000   0.0000   0.0000   0.6200
  -2.000   0.3951   0.00892   0.00267  -0.1346  0.7200  0.1955  -0.9761   0.0000   0.0000   0.0000   0.5935
  -1.750   0.4236   0.00876   0.00262  -0.1348  0.7166  0.2363  -0.8696   0.0000   0.0000   0.0000   0.5704
  -1.500   0.4523   0.00861   0.00257  -0.1351  0.7136  0.2765  -0.7877   0.0000   0.0000   0.0000   0.5502
  -1.250   0.4808   0.00848   0.00255  -0.1354  0.7105  0.3190  -0.8057   0.0000   0.0000   0.0000   0.5324
  -1.000   0.5092   0.00832   0.00254  -0.1356  0.7068  0.3679  -0.8240   0.0000   0.0000   0.0000   0.5166
  -0.750   0.5377   0.00816   0.00252  -0.1358  0.7036  0.4261  -0.8428   0.0000   0.0000   0.0000   0.5025
  -0.500   0.5660   0.00799   0.00253  -0.1360  0.7005  0.4970  -0.8620   0.0000   0.0000   0.0000   0.4898
  -0.250   0.5937   0.00778   0.00257  -0.1361  0.6966  0.5793  -0.8814   0.0000   0.0000   0.0000   0.4783
   0.000   0.6210   0.00757   0.00261  -0.1360  0.6932  0.6731  -0.9013   0.0000   0.0000   0.0000   0.4677
   0.250   0.6480   0.00743   0.00266  -0.1358  0.6898  0.7458  -0.9215   0.0000   0.0000   0.0000   0.4578
   0.500   0.6736   0.00726   0.00271  -0.1352  0.6857  0.8161  -0.9413   0.0000   0.0000   0.0000   0.4486
   0.750   0.6955   0.00707   0.00272  -0.1335  0.6822  0.9092  -0.9599   0.0000   0.0000   0.0000   0.4395
   1.000   0.7348   0.00699   0.00268  -0.1358  0.6782  1.0001  -0.9885   0.0000   0.0000   0.0000   0.4320
   1.250   0.7630   0.00703   0.00269  -0.1359  0.6739  1.0001  -1.0115   0.0000   0.0000   0.0000   0.4250
   1.500   0.7915   0.00710   0.00268  -0.1361  0.6702  1.0001  -1.0354   0.0000   0.0000   0.0000   0.4185
   1.750   0.8194   0.00714   0.00273  -0.1362  0.6653  1.0001  -1.0595   0.0000   0.0000   0.0000   0.4124
   2.000   0.8476   0.00720   0.00274  -0.1363  0.6610  1.0001  -1.0847   0.0000   0.0000   0.0000   0.4067
   2.250   0.8756   0.00726   0.00279  -0.1364  0.6561  1.0001  -1.1104   0.0000   0.0000   0.0000   0.4013
   2.500   0.9035   0.00731   0.00281  -0.1364  0.6511  1.0001  -1.1371   0.0000   0.0000   0.0000   0.3963
   2.750   0.9314   0.00738   0.00287  -0.1365  0.6459  1.0001  -1.1646   0.0000   0.0000   0.0000   0.3915
   3.000   0.9592   0.00745   0.00291  -0.1365  0.6404  1.0001  -1.1931   0.0000   0.0000   0.0000   0.3870
   3.250   0.9868   0.00752   0.00297  -0.1366  0.6345  1.0001  -1.2227   0.0000   0.0000   0.0000   0.3827
   3.500   1.0143   0.00760   0.00303  -0.1366  0.6286  1.0001  -1.2536   0.0000   0.0000   0.0000   0.3786
   3.750   1.0416   0.00767   0.00311  -0.1365  0.6216  1.0001  -1.2856   0.0000   0.0000   0.0000   0.3747
   4.000   1.0687   0.00777   0.00318  -0.1365  0.6149  1.0001  -1.3193   0.0000   0.0000   0.0000   0.3710
   4.250   1.0956   0.00787   0.00327  -0.1364  0.6074  1.0001  -1.3544   0.0000   0.0000   0.0000   0.3675
   4.500   1.1224   0.00797   0.00337  -0.1362  0.5991  1.0001  -1.3915   0.0000   0.0000   0.0000   0.3641
   4.750   1.1489   0.00809   0.00348  -0.1361  0.5904  1.0001  -1.4305   0.0000   0.0000   0.0000   0.3608
   5.000   1.1751   0.00822   0.00361  -0.1358  0.5811  1.0001  -1.4718   0.0000   0.0000   0.0000   0.3576
   5.250   1.2008   0.00837   0.00374  -0.1356  0.5708  1.0001  -1.5160   0.0000   0.0000   0.0000   0.3546
   5.500   1.2262   0.00854   0.00388  -0.1352  0.5595  1.0001  -1.5646   0.0000   0.0000   0.0000   0.3516
   5.750   1.2511   0.00872   0.00405  -0.1348  0.5469  1.0001  -1.6217   0.0000   0.0000   0.0000   0.3487
   6.000   1.2751   0.00895   0.00423  -0.1342  0.5330  1.0001  -1.6949   0.0000   0.0000   0.0000   0.3459
   6.250   1.2984   0.00921   0.00445  -0.1335  0.5179  1.0001  -1.7742   0.0000   0.0000   0.0000   0.3431
   6.500   1.3208   0.00951   0.00469  -0.1326  0.5008  1.0001  -1.8572   0.0000   0.0000   0.0000   0.3403
   6.750   1.3420   0.00985   0.00497  -0.1316  0.4826  1.0001  -1.9433   0.0000   0.0000   0.0000   0.3376
   7.000   1.3620   0.01025   0.00529  -0.1303  0.4635  1.0001  -2.0332   0.0000   0.0000   0.0000   0.3349
   7.250   1.3811   0.01068   0.00565  -0.1289  0.4441  1.0001  -2.1295   0.0000   0.0000   0.0000   0.3322
   7.500   1.4000   0.01111   0.00601  -0.1275  0.4254  1.0001  -2.2331   0.0000   0.0000   0.0000   0.3295
   7.750   1.4176   0.01157   0.00641  -0.1259  0.4074  1.0001  -2.3377   0.0000   0.0000   0.0000   0.3269
   8.250   1.4464   0.01260   0.00732  -0.1216  0.3715  1.0001  -2.5461   0.0000   0.0000   0.0000   0.3213
   8.500   1.4595   0.01321   0.00787  -0.1193  0.3531  1.0001  -2.6501   0.0000   0.0000   0.0000   0.3187
   8.750   1.4715   0.01392   0.00850  -0.1170  0.3342  1.0001  -2.7579   0.0000   0.0000   0.0000   0.3160
   9.000   1.4826   0.01471   0.00922  -0.1147  0.3146  1.0001  -2.8644   0.0000   0.0000   0.0000   0.3135
   9.250   1.4929   0.01560   0.01004  -0.1125  0.2946  1.0001  -2.9698   0.0000   0.0000   0.0000   0.3110
   9.500   1.5024   0.01659   0.01094  -0.1102  0.2744  1.0001  -3.0741   0.0000   0.0000   0.0000   0.3086
   9.750   1.5112   0.01769   0.01195  -0.1080  0.2540  1.0001  -3.1794   0.0000   0.0000   0.0000   0.3063
  10.000   1.5194   0.01887   0.01305  -0.1059  0.2341  1.0001  -3.2882   0.0000   0.0000   0.0000   0.3040
  10.250   1.5266   0.02016   0.01425  -0.1037  0.2143  1.0001  -3.3953   0.0000   0.0000   0.0000   0.3018
  10.500   1.5332   0.02153   0.01554  -0.1016  0.1951  1.0001  -3.5009   0.0000   0.0000   0.0000   0.2997
  10.750   1.5389   0.02300   0.01692  -0.0995  0.1766  1.0001  -3.6047   0.0000   0.0000   0.0000   0.2976
  11.000   1.5443   0.02452   0.01836  -0.0974  0.1590  1.0001  -3.7081   0.0000   0.0000   0.0000   0.2956
  11.250   1.5495   0.02610   0.01986  -0.0954  0.1425  1.0001  -3.8115   0.0000   0.0000   0.0000   0.2936
  11.500   1.5540   0.02774   0.02143  -0.0934  0.1270  1.0001  -3.9193   0.0000   0.0000   0.0000   0.2917
  11.750   1.5580   0.02945   0.02308  -0.0915  0.1127  1.0001  -4.0268   0.0000   0.0000   0.0000   0.2898
  12.000   1.5616   0.03122   0.02480  -0.0896  0.0999  1.0001  -4.1340   0.0000   0.0000   0.0000   0.2879
  12.250   1.5652   0.03301   0.02655  -0.0878  0.0888  1.0001  -4.2412   0.0000   0.0000   0.0000   0.2861
  12.500   1.5694   0.03481   0.02832  -0.0861  0.0793  1.0001  -4.3515   0.0000   0.0000   0.0000   0.2844
  12.750   1.5732   0.03669   0.03019  -0.0845  0.0713  1.0001  -4.4610   0.0000   0.0000   0.0000   0.2828
  13.000   1.5770   0.03862   0.03211  -0.0829  0.0646  1.0001  -4.5708   0.0000   0.0000   0.0000   0.2811
  13.250   1.5812   0.04055   0.03405  -0.0815  0.0588  1.0001  -4.6867   0.0000   0.0000   0.0000   0.2796
  13.500   1.5850   0.04257   0.03608  -0.0802  0.0539  1.0001  -4.8055   0.0000   0.0000   0.0000   0.2781
  13.750   1.5886   0.04466   0.03818  -0.0789  0.0497  1.0001  -4.9242   0.0000   0.0000   0.0000   0.2766
  14.000   1.5932   0.04671   0.04027  -0.0778  0.0461  1.0001  -5.0475   0.0000   0.0000   0.0000   0.2753
  14.250   1.5966   0.04889   0.04249  -0.0767  0.0432  1.0001  -5.1663   0.0000   0.0000   0.0000   0.2739
  14.500   1.5985   0.05127   0.04490  -0.0755  0.0406  1.0001  -5.2786   0.0000   0.0000   0.0000   0.2726
  14.750   1.6025   0.05349   0.04719  -0.0746  0.0383  1.0001  -5.4006   0.0000   0.0000   0.0000   0.2714
  15.000   1.6027   0.05616   0.04988  -0.0737  0.0363  1.0001  -5.5065   0.0000   0.0000   0.0000   0.2702
  15.250   1.6066   0.05848   0.05228  -0.0729  0.0343  1.0001  -5.6335   0.0000   0.0000   0.0000   0.2691
  15.500   1.6070   0.06121   0.05506  -0.0722  0.0327  1.0001  -5.7487   0.0000   0.0000   0.0000   0.2680
  15.750   1.6074   0.06398   0.05790  -0.0715  0.0312  1.0001  -5.8631   0.0000   0.0000   0.0000   0.2670
  16.000   1.6090   0.06665   0.06064  -0.0709  0.0299  1.0001  -5.9849   0.0000   0.0000   0.0000   0.2660
  16.250   1.6067   0.06985   0.06389  -0.0704  0.0287  1.0001  -6.0864   0.0000   0.0000   0.0000   0.2652
  16.500   1.6047   0.07307   0.06719  -0.0699  0.0277  1.0001  -6.1874   0.0000   0.0000   0.0000   0.2644
  16.750   1.6054   0.07601   0.07023  -0.0697  0.0267  1.0001  -6.3036   0.0000   0.0000   0.0000   0.2636
  17.000   1.6038   0.07924   0.07353  -0.0695  0.0258  1.0001  -6.4091   0.0000   0.0000   0.0000   0.2629
  17.250   1.5981   0.08305   0.07740  -0.0693  0.0250  1.0001  -6.4905   0.0000   0.0000   0.0000   0.2624
  17.500   1.5937   0.08675   0.08119  -0.0693  0.0243  1.0001  -6.5769   0.0000   0.0000   0.0000   0.2619
  17.750   1.5929   0.09003   0.08457  -0.0694  0.0236  1.0001  -6.6837   0.0000   0.0000   0.0000   0.2613
  18.000   1.5905   0.09356   0.08819  -0.0696  0.0228  1.0001  -6.7823   0.0000   0.0000   0.0000   0.2609
  18.250   1.5862   0.09739   0.09209  -0.0700  0.0222  1.0001  -6.8735   0.0000   0.0000   0.0000   0.2606
  18.500   1.5784   0.10175   0.09653  -0.0706  0.0217  1.0001  -6.9432   0.0000   0.0000   0.0000   0.2606
  18.750   1.5692   0.10633   0.10119  -0.0712  0.0212  1.0001  -7.0000   0.0000   0.0000   0.0000   0.2606
  19.000   1.5668   0.11000   0.10497  -0.0719  0.0208  1.0001  -7.1005   0.0000   0.0000   0.0000   0.2605
  19.250   1.5630   0.11390   0.10897  -0.0726  0.0203  1.0001  -7.1913   0.0000   0.0000   0.0000   0.2604
  19.500   1.5587   0.11792   0.11308  -0.0736  0.0198  1.0001  -7.2774   0.0000   0.0000   0.0000   0.2605
  19.750   1.5540   0.12202   0.11727  -0.0747  0.0194  1.0001  -7.3603   0.0000   0.0000   0.0000   0.2607
  20.000   1.5485   0.12630   0.12162  -0.0759  0.0190  1.0001  -7.4353   0.0000   0.0000   0.0000   0.2610


