xflr5 v6.61

 Calculated polar for: QX0026 thickness=13.65

 1 1 Reynolds number fixed          Mach number fixed         

 xtrf =   1.000 (top)        1.000 (bottom)
 Mach =   0.000     Re =     0.620 e 6     Ncrit =   9.000

  alpha     CL        CD       CDp       Cm    Top Xtr Bot Xtr   Cpmin    Chinge    XCp    
 ------- -------- --------- --------- -------- ------- ------- -------- --------- ---------
  -9.750  -0.4430   0.02451   0.01986  -0.1299  0.8136  0.0211  -6.1076   0.0000   0.0000   0.0000  -0.0623
  -9.500  -0.4201   0.02349   0.01869  -0.1301  0.8105  0.0216  -5.9082   0.0000   0.0000   0.0000  -0.0791
  -9.250  -0.3976   0.02223   0.01723  -0.1304  0.8067  0.0223  -5.7338   0.0000   0.0000   0.0000  -0.0976
  -9.000  -0.3746   0.02096   0.01568  -0.1305  0.8035  0.0229  -5.5706   0.0000   0.0000   0.0000  -0.1185
  -8.750  -0.3501   0.01999   0.01444  -0.1306  0.8004  0.0233  -5.3929   0.0000   0.0000   0.0000  -0.1438
  -8.500  -0.3275   0.01836   0.01266  -0.1307  0.7970  0.0239  -5.2321   0.0000   0.0000   0.0000  -0.1704
  -8.250  -0.3016   0.01770   0.01195  -0.1308  0.7940  0.0245  -5.0137   0.0000   0.0000   0.0000  -0.2059
  -8.000  -0.2752   0.01713   0.01128  -0.1309  0.7912  0.0251  -4.7998   0.0000   0.0000   0.0000  -0.2489
  -7.750  -0.2487   0.01651   0.01055  -0.1310  0.7878  0.0258  -4.5959   0.0000   0.0000   0.0000  -0.3013
  -7.500  -0.2219   0.01592   0.00982  -0.1311  0.7850  0.0266  -4.3973   0.0000   0.0000   0.0000  -0.3670
  -7.250  -0.1952   0.01527   0.00901  -0.1311  0.7825  0.0275  -4.2040   0.0000   0.0000   0.0000  -0.4504
  -7.000  -0.1686   0.01467   0.00843  -0.1313  0.7792  0.0285  -4.0022   0.0000   0.0000   0.0000  -0.5602
  -6.750  -0.1411   0.01428   0.00799  -0.1314  0.7762  0.0294  -3.8121   0.0000   0.0000   0.0000  -0.7173
  -6.500  -0.1134   0.01387   0.00748  -0.1315  0.7737  0.0305  -3.6333   0.0000   0.0000   0.0000  -0.9519
  -6.250  -0.0856   0.01350   0.00701  -0.1315  0.7709  0.0315  -3.4579   0.0000   0.0000   0.0000  -1.3408
  -6.000  -0.0587   0.01290   0.00642  -0.1316  0.7678  0.0328  -3.2836   0.0000   0.0000   0.0000  -2.0661
  -5.750  -0.0307   0.01261   0.00609  -0.1318  0.7651  0.0342  -3.1004   0.0000   0.0000   0.0000  -4.1840
  -5.500  -0.0022   0.01241   0.00579  -0.1319  0.7628  0.0358  -2.9227   0.0000   0.0000   0.0000  -62.4751
  -5.250   0.0251   0.01193   0.00534  -0.1321  0.7596  0.0376  -2.7530   0.0000   0.0000   0.0000   5.6519
  -5.000   0.0534   0.01168   0.00505  -0.1322  0.7567  0.0395  -2.5837   0.0000   0.0000   0.0000   2.7913
  -4.750   0.0816   0.01135   0.00467  -0.1324  0.7542  0.0416  -2.4342   0.0000   0.0000   0.0000   1.9132
  -4.500   0.1100   0.01114   0.00445  -0.1325  0.7515  0.0443  -2.2787   0.0000   0.0000   0.0000   1.4839
  -4.250   0.1382   0.01086   0.00418  -0.1327  0.7483  0.0473  -2.1302   0.0000   0.0000   0.0000   1.2317
  -4.000   0.1668   0.01068   0.00396  -0.1329  0.7455  0.0507  -1.9813   0.0000   0.0000   0.0000   1.0631
  -3.750   0.1954   0.01045   0.00371  -0.1331  0.7430  0.0550  -1.8356   0.0000   0.0000   0.0000   0.9442
  -3.500   0.2237   0.01023   0.00353  -0.1333  0.7397  0.0603  -1.6974   0.0000   0.0000   0.0000   0.8561
  -3.250   0.2523   0.01003   0.00334  -0.1335  0.7366  0.0672  -1.5691   0.0000   0.0000   0.0000   0.7875
  -3.000   0.2811   0.00985   0.00315  -0.1337  0.7339  0.0768  -1.4425   0.0000   0.0000   0.0000   0.7325
  -2.750   0.3096   0.00965   0.00302  -0.1339  0.7309  0.0922  -1.3183   0.0000   0.0000   0.0000   0.6881
  -2.500   0.3380   0.00942   0.00290  -0.1341  0.7275  0.1183  -1.1964   0.0000   0.0000   0.0000   0.6514
  -2.250   0.3665   0.00920   0.00280  -0.1344  0.7245  0.1566  -1.0847   0.0000   0.0000   0.0000   0.6203
  -2.000   0.3952   0.00903   0.00273  -0.1347  0.7218  0.1991  -0.9757   0.0000   0.0000   0.0000   0.5936
  -1.750   0.4235   0.00886   0.00270  -0.1349  0.7182  0.2400  -0.8696   0.0000   0.0000   0.0000   0.5706
  -1.500   0.4521   0.00871   0.00265  -0.1351  0.7150  0.2806  -0.7874   0.0000   0.0000   0.0000   0.5504
  -1.250   0.4809   0.00858   0.00261  -0.1354  0.7122  0.3241  -0.8056   0.0000   0.0000   0.0000   0.5325
  -1.000   0.5090   0.00842   0.00261  -0.1356  0.7085  0.3740  -0.8237   0.0000   0.0000   0.0000   0.5168
  -0.750   0.5374   0.00825   0.00260  -0.1358  0.7050  0.4333  -0.8425   0.0000   0.0000   0.0000   0.5027
  -0.500   0.5658   0.00807   0.00260  -0.1361  0.7021  0.5067  -0.8618   0.0000   0.0000   0.0000   0.4899
  -0.250   0.5933   0.00786   0.00265  -0.1361  0.6983  0.5905  -0.8811   0.0000   0.0000   0.0000   0.4784
   0.000   0.6205   0.00765   0.00270  -0.1360  0.6946  0.6837  -0.9008   0.0000   0.0000   0.0000   0.4678
   0.250   0.6476   0.00752   0.00272  -0.1357  0.6915  0.7553  -0.9211   0.0000   0.0000   0.0000   0.4578
   0.750   0.6944   0.00715   0.00280  -0.1332  0.6835  0.9252  -0.9592   0.0000   0.0000   0.0000   0.4394
   1.000   0.7348   0.00711   0.00274  -0.1358  0.6800  1.0001  -0.9884   0.0000   0.0000   0.0000   0.4321
   1.250   0.7627   0.00715   0.00276  -0.1359  0.6755  1.0001  -1.0112   0.0000   0.0000   0.0000   0.4251
   1.500   0.7911   0.00720   0.00276  -0.1361  0.6715  1.0001  -1.0350   0.0000   0.0000   0.0000   0.4185
   1.750   0.8192   0.00725   0.00279  -0.1362  0.6670  1.0001  -1.0593   0.0000   0.0000   0.0000   0.4124
   2.000   0.8473   0.00730   0.00281  -0.1363  0.6624  1.0001  -1.0843   0.0000   0.0000   0.0000   0.4067
   2.250   0.8754   0.00737   0.00284  -0.1364  0.6579  1.0001  -1.1102   0.0000   0.0000   0.0000   0.4013
   2.500   0.9032   0.00742   0.00289  -0.1364  0.6526  1.0001  -1.1368   0.0000   0.0000   0.0000   0.3963
   2.750   0.9312   0.00749   0.00292  -0.1365  0.6478  1.0001  -1.1644   0.0000   0.0000   0.0000   0.3915
   3.000   0.9588   0.00755   0.00298  -0.1365  0.6419  1.0001  -1.1928   0.0000   0.0000   0.0000   0.3870
   3.250   0.9865   0.00763   0.00303  -0.1365  0.6365  1.0001  -1.2224   0.0000   0.0000   0.0000   0.3827
   3.500   1.0139   0.00770   0.00310  -0.1365  0.6301  1.0001  -1.2532   0.0000   0.0000   0.0000   0.3786
   3.750   1.0412   0.00778   0.00317  -0.1365  0.6235  1.0001  -1.2853   0.0000   0.0000   0.0000   0.3747
   4.000   1.0684   0.00788   0.00324  -0.1364  0.6170  1.0001  -1.3190   0.0000   0.0000   0.0000   0.3710
   4.250   1.0953   0.00797   0.00334  -0.1363  0.6091  1.0001  -1.3540   0.0000   0.0000   0.0000   0.3675
   4.500   1.1221   0.00807   0.00344  -0.1362  0.6011  1.0001  -1.3910   0.0000   0.0000   0.0000   0.3641
   4.750   1.1485   0.00819   0.00354  -0.1360  0.5926  1.0001  -1.4300   0.0000   0.0000   0.0000   0.3608
   5.000   1.1746   0.00833   0.00366  -0.1358  0.5835  1.0001  -1.4712   0.0000   0.0000   0.0000   0.3576
   5.250   1.2003   0.00847   0.00379  -0.1355  0.5734  1.0001  -1.5154   0.0000   0.0000   0.0000   0.3545
   5.500   1.2257   0.00864   0.00394  -0.1351  0.5622  1.0001  -1.5639   0.0000   0.0000   0.0000   0.3516
   5.750   1.2506   0.00882   0.00410  -0.1347  0.5498  1.0001  -1.6210   0.0000   0.0000   0.0000   0.3487
   6.000   1.2749   0.00903   0.00429  -0.1341  0.5360  1.0001  -1.6944   0.0000   0.0000   0.0000   0.3459
   6.250   1.2981   0.00929   0.00450  -0.1334  0.5210  1.0001  -1.7735   0.0000   0.0000   0.0000   0.3431
   6.500   1.3206   0.00957   0.00474  -0.1326  0.5044  1.0001  -1.8566   0.0000   0.0000   0.0000   0.3403
   6.750   1.3415   0.00993   0.00502  -0.1315  0.4865  1.0001  -1.9421   0.0000   0.0000   0.0000   0.3376
   7.000   1.3618   0.01031   0.00533  -0.1303  0.4672  1.0001  -2.0327   0.0000   0.0000   0.0000   0.3348
   7.250   1.3812   0.01073   0.00568  -0.1289  0.4479  1.0001  -2.1293   0.0000   0.0000   0.0000   0.3322
   7.500   1.3996   0.01117   0.00606  -0.1274  0.4294  1.0001  -2.2318   0.0000   0.0000   0.0000   0.3295
   7.750   1.4167   0.01165   0.00647  -0.1257  0.4112  1.0001  -2.3353   0.0000   0.0000   0.0000   0.3268
   8.000   1.4323   0.01212   0.00688  -0.1237  0.3933  1.0001  -2.4414   0.0000   0.0000   0.0000   0.3241
   8.250   1.4458   0.01266   0.00737  -0.1214  0.3756  1.0001  -2.5442   0.0000   0.0000   0.0000   0.3213
   8.500   1.4584   0.01330   0.00793  -0.1191  0.3573  1.0001  -2.6466   0.0000   0.0000   0.0000   0.3186
   8.750   1.4708   0.01398   0.00855  -0.1169  0.3383  1.0001  -2.7554   0.0000   0.0000   0.0000   0.3160
   9.000   1.4821   0.01477   0.00926  -0.1146  0.3187  1.0001  -2.8625   0.0000   0.0000   0.0000   0.3134
   9.250   1.4924   0.01566   0.01008  -0.1123  0.2988  1.0001  -2.9678   0.0000   0.0000   0.0000   0.3109
   9.500   1.5018   0.01665   0.01099  -0.1101  0.2787  1.0001  -3.0718   0.0000   0.0000   0.0000   0.3085
   9.750   1.5103   0.01776   0.01201  -0.1079  0.2584  1.0001  -3.1760   0.0000   0.0000   0.0000   0.3062
  10.000   1.5182   0.01896   0.01313  -0.1057  0.2385  1.0001  -3.2838   0.0000   0.0000   0.0000   0.3039
  10.250   1.5255   0.02025   0.01434  -0.1035  0.2188  1.0001  -3.3908   0.0000   0.0000   0.0000   0.3018
  10.500   1.5322   0.02161   0.01561  -0.1015  0.1994  1.0001  -3.4971   0.0000   0.0000   0.0000   0.2996
  10.750   1.5382   0.02307   0.01698  -0.0994  0.1806  1.0001  -3.6015   0.0000   0.0000   0.0000   0.2976
  11.000   1.5434   0.02460   0.01844  -0.0973  0.1626  1.0001  -3.7043   0.0000   0.0000   0.0000   0.2955
  11.250   1.5482   0.02620   0.01996  -0.0953  0.1458  1.0001  -3.8064   0.0000   0.0000   0.0000   0.2935
  11.500   1.5525   0.02786   0.02155  -0.0932  0.1302  1.0001  -3.9130   0.0000   0.0000   0.0000   0.2916
  11.750   1.5563   0.02958   0.02321  -0.0913  0.1157  1.0001  -4.0199   0.0000   0.0000   0.0000   0.2897
  12.000   1.5600   0.03135   0.02493  -0.0894  0.1025  1.0001  -4.1268   0.0000   0.0000   0.0000   0.2879
  12.250   1.5635   0.03315   0.02668  -0.0876  0.0910  1.0001  -4.2339   0.0000   0.0000   0.0000   0.2861
  12.500   1.5668   0.03502   0.02852  -0.0858  0.0814  1.0001  -4.3407   0.0000   0.0000   0.0000   0.2843
  12.750   1.5711   0.03688   0.03036  -0.0842  0.0730  1.0001  -4.4515   0.0000   0.0000   0.0000   0.2827
  13.000   1.5747   0.03882   0.03230  -0.0827  0.0659  1.0001  -4.5605   0.0000   0.0000   0.0000   0.2811
  13.250   1.5782   0.04082   0.03430  -0.0813  0.0600  1.0001  -4.6730   0.0000   0.0000   0.0000   0.2795
  13.500   1.5820   0.04285   0.03634  -0.0799  0.0550  1.0001  -4.7914   0.0000   0.0000   0.0000   0.2780
  13.750   1.5861   0.04490   0.03842  -0.0787  0.0507  1.0001  -4.9116   0.0000   0.0000   0.0000   0.2766
  14.000   1.5900   0.04702   0.04057  -0.0775  0.0471  1.0001  -5.0316   0.0000   0.0000   0.0000   0.2752
  14.250   1.5924   0.04930   0.04288  -0.0764  0.0441  1.0001  -5.1457   0.0000   0.0000   0.0000   0.2739
  14.500   1.5956   0.05156   0.04518  -0.0753  0.0414  1.0001  -5.2637   0.0000   0.0000   0.0000   0.2726
  14.750   1.5981   0.05394   0.04762  -0.0744  0.0390  1.0001  -5.3785   0.0000   0.0000   0.0000   0.2713
  15.000   1.6000   0.05644   0.05016  -0.0735  0.0369  1.0001  -5.4917   0.0000   0.0000   0.0000   0.2702
  15.250   1.6015   0.05903   0.05281  -0.0727  0.0350  1.0001  -5.6055   0.0000   0.0000   0.0000   0.2691
  15.500   1.6034   0.06160   0.05544  -0.0720  0.0333  1.0001  -5.7278   0.0000   0.0000   0.0000   0.2680
  15.750   1.6009   0.06470   0.05859  -0.0712  0.0319  1.0001  -5.8275   0.0000   0.0000   0.0000   0.2670
  16.000   1.6037   0.06726   0.06124  -0.0707  0.0304  1.0001  -5.9542   0.0000   0.0000   0.0000   0.2660
  16.250   1.6032   0.07026   0.06430  -0.0702  0.0293  1.0001  -6.0645   0.0000   0.0000   0.0000   0.2652
  16.750   1.5988   0.07681   0.07101  -0.0695  0.0273  1.0001  -6.2647   0.0000   0.0000   0.0000   0.2637
  17.000   1.5982   0.07994   0.07422  -0.0693  0.0263  1.0001  -6.3739   0.0000   0.0000   0.0000   0.2630
  17.250   1.5948   0.08345   0.07780  -0.0692  0.0255  1.0001  -6.4682   0.0000   0.0000   0.0000   0.2624
  17.500   1.5865   0.08768   0.08209  -0.0693  0.0248  1.0001  -6.5323   0.0000   0.0000   0.0000   0.2620
  17.750   1.5854   0.09102   0.08553  -0.0694  0.0241  1.0001  -6.6363   0.0000   0.0000   0.0000   0.2615
  18.000   1.5836   0.09449   0.08910  -0.0696  0.0233  1.0001  -6.7363   0.0000   0.0000   0.0000   0.2611
  18.250   1.5804   0.09817   0.09287  -0.0700  0.0227  1.0001  -6.8319   0.0000   0.0000   0.0000   0.2608
  18.500   1.5750   0.10220   0.09697  -0.0705  0.0221  1.0001  -6.9174   0.0000   0.0000   0.0000   0.2606
  18.750   1.5661   0.10673   0.10157  -0.0712  0.0216  1.0001  -6.9774   0.0000   0.0000   0.0000   0.2607
  19.000   1.5589   0.11109   0.10602  -0.0720  0.0212  1.0001  -7.0447   0.0000   0.0000   0.0000   0.2608
  19.250   1.5562   0.11487   0.10991  -0.0728  0.0207  1.0001  -7.1404   0.0000   0.0000   0.0000   0.2607
  19.500   1.5523   0.11883   0.11397  -0.0737  0.0202  1.0001  -7.2281   0.0000   0.0000   0.0000   0.2608
  19.750   1.5480   0.12288   0.11812  -0.0748  0.0198  1.0001  -7.3119   0.0000   0.0000   0.0000   0.2610
  20.000   1.5436   0.12700   0.12232  -0.0760  0.0193  1.0001  -7.3935   0.0000   0.0000   0.0000   0.2612


