xflr5 v6.61

 Calculated polar for: QX0026 v39

 1 1 Reynolds number fixed          Mach number fixed         

 xtrf =   1.000 (top)        1.000 (bottom)
 Mach =   0.000     Re =     0.500 e 6     Ncrit =   9.000

  alpha     CL        CD       CDp       Cm    Top Xtr Bot Xtr   Cpmin    Chinge    XCp    
 ------- -------- --------- --------- -------- ------- ------- -------- --------- ---------
  -5.000   0.0218   0.01244   0.00549  -0.1246  0.7624  0.0521  -2.3224   0.0000   0.0000   0.0000   6.1382
  -4.500   0.0783   0.01193   0.00492  -0.1249  0.7573  0.0600  -2.0491   0.0000   0.0000   0.0000   1.8897
  -4.000   0.1347   0.01140   0.00443  -0.1253  0.7516  0.0728  -1.7828   0.0000   0.0000   0.0000   1.2021
  -3.500   0.1915   0.01092   0.00406  -0.1257  0.7463  0.1005  -1.5419   0.0000   0.0000   0.0000   0.9199
  -3.000   0.2484   0.01049   0.00378  -0.1262  0.7408  0.1489  -1.3069   0.0000   0.0000   0.0000   0.7665
  -2.500   0.3052   0.01012   0.00361  -0.1267  0.7350  0.2098  -1.0797   0.0000   0.0000   0.0000   0.6706
  -2.000   0.3624   0.00969   0.00344  -0.1273  0.7294  0.3033  -0.8773   0.0000   0.0000   0.0000   0.6045
  -1.500   0.4186   0.00933   0.00340  -0.1276  0.7226  0.4083  -0.7869   0.0000   0.0000   0.0000   0.5567
  -1.000   0.4753   0.00899   0.00338  -0.1280  0.7169  0.5255  -0.8197   0.0000   0.0000   0.0000   0.5198
  -0.500   0.5311   0.00872   0.00342  -0.1280  0.7100  0.6355  -0.8575   0.0000   0.0000   0.0000   0.4906
   0.000   0.5864   0.00856   0.00346  -0.1278  0.7021  0.7227  -0.8966   0.0000   0.0000   0.0000   0.4666
   0.500   0.6410   0.00841   0.00348  -0.1273  0.6951  0.7951  -0.9376   0.0000   0.0000   0.0000   0.4465
   1.000   0.6917   0.00822   0.00349  -0.1258  0.6876  0.8848  -0.9816   0.0000   0.0000   0.0000   0.4289
   1.500   0.7610   0.00809   0.00343  -0.1284  0.6787  1.0001  -1.0363   0.0000   0.0000   0.0000   0.4151
   2.000   0.8170   0.00819   0.00346  -0.1286  0.6695  1.0001  -1.0896   0.0000   0.0000   0.0000   0.4031
   2.500   0.8729   0.00830   0.00352  -0.1288  0.6600  1.0001  -1.1461   0.0000   0.0000   0.0000   0.3926
   3.000   0.9284   0.00840   0.00358  -0.1289  0.6492  1.0001  -1.2054   0.0000   0.0000   0.0000   0.3832
   3.500   0.9835   0.00853   0.00367  -0.1289  0.6374  1.0001  -1.2730   0.0000   0.0000   0.0000   0.3748
   4.000   1.0383   0.00869   0.00382  -0.1289  0.6256  1.0001  -1.3430   0.0000   0.0000   0.0000   0.3672
   4.500   1.0921   0.00887   0.00398  -0.1287  0.6116  1.0001  -1.4203   0.0000   0.0000   0.0000   0.3603
   5.000   1.1447   0.00908   0.00418  -0.1283  0.5948  1.0001  -1.5080   0.0000   0.0000   0.0000   0.3538
   5.500   1.1959   0.00936   0.00445  -0.1277  0.5755  1.0001  -1.5957   0.0000   0.0000   0.0000   0.3478
   6.000   1.2456   0.00972   0.00478  -0.1268  0.5541  1.0001  -1.6997   0.0000   0.0000   0.0000   0.3421
   6.500   1.2933   0.01015   0.00518  -0.1256  0.5301  1.0001  -1.8287   0.0000   0.0000   0.0000   0.3367
   7.000   1.3360   0.01075   0.00570  -0.1236  0.4980  1.0001  -1.9781   0.0000   0.0000   0.0000   0.3313
   7.500   1.3718   0.01161   0.00640  -0.1204  0.4573  1.0001  -2.1318   0.0000   0.0000   0.0000   0.3259
   8.000   1.4015   0.01260   0.00727  -0.1162  0.4211  1.0001  -2.3050   0.0000   0.0000   0.0000   0.3202
   8.500   1.4241   0.01392   0.00844  -0.1112  0.3834  1.0001  -2.4975   0.0000   0.0000   0.0000   0.3146
   9.000   1.4455   0.01554   0.00994  -0.1066  0.3472  1.0001  -2.6908   0.0000   0.0000   0.0000   0.3094
   9.500   1.4657   0.01748   0.01176  -0.1025  0.3126  1.0001  -2.8884   0.0000   0.0000   0.0000   0.3047
  10.000   1.4842   0.01972   0.01390  -0.0986  0.2795  1.0001  -3.0935   0.0000   0.0000   0.0000   0.3003
  10.500   1.4999   0.02230   0.01634  -0.0948  0.2447  1.0001  -3.2947   0.0000   0.0000   0.0000   0.2962
  11.000   1.5138   0.02511   0.01905  -0.0911  0.2141  1.0001  -3.4938   0.0000   0.0000   0.0000   0.2922
  11.500   1.5262   0.02813   0.02195  -0.0875  0.1840  1.0001  -3.6913   0.0000   0.0000   0.0000   0.2884
  12.000   1.5387   0.03123   0.02499  -0.0841  0.1597  1.0001  -3.8918   0.0000   0.0000   0.0000   0.2848
  12.500   1.5485   0.03464   0.02833  -0.0809  0.1356  1.0001  -4.0858   0.0000   0.0000   0.0000   0.2813
  13.000   1.5570   0.03834   0.03199  -0.0779  0.1155  1.0001  -4.2771   0.0000   0.0000   0.0000   0.2781
  13.500   1.5645   0.04230   0.03591  -0.0751  0.0964  1.0001  -4.4663   0.0000   0.0000   0.0000   0.2750
  14.000   1.5704   0.04661   0.04021  -0.0726  0.0812  1.0001  -4.6620   0.0000   0.0000   0.0000   0.2722
  14.500   1.5754   0.05116   0.04479  -0.0704  0.0700  1.0001  -4.8567   0.0000   0.0000   0.0000   0.2695
  15.000   1.5792   0.05603   0.04971  -0.0685  0.0612  1.0001  -5.0474   0.0000   0.0000   0.0000   0.2671
  15.500   1.5824   0.06116   0.05492  -0.0670  0.0536  1.0001  -5.2348   0.0000   0.0000   0.0000   0.2649
  16.000   1.5814   0.06689   0.06074  -0.0657  0.0475  1.0001  -5.4083   0.0000   0.0000   0.0000   0.2630
  16.500   1.5795   0.07298   0.06694  -0.0648  0.0420  1.0001  -5.5925   0.0000   0.0000   0.0000   0.2613
  17.000   1.5740   0.07969   0.07378  -0.0643  0.0376  1.0001  -5.7631   0.0000   0.0000   0.0000   0.2599
  17.500   1.5634   0.08723   0.08144  -0.0642  0.0342  1.0001  -5.9060   0.0000   0.0000   0.0000   0.2589
  18.000   1.5570   0.09448   0.08887  -0.0646  0.0313  1.0001  -6.0656   0.0000   0.0000   0.0000   0.2581
  18.500   1.5438   0.10280   0.09736  -0.0656  0.0293  1.0001  -6.1953   0.0000   0.0000   0.0000   0.2578
  19.000   1.5336   0.11088   0.10561  -0.0670  0.0277  1.0001  -6.3385   0.0000   0.0000   0.0000   0.2577
  19.500   1.5168   0.12007   0.11493  -0.0692  0.0265  1.0001  -6.4352   0.0000   0.0000   0.0000   0.2584
  20.000   1.5105   0.12790   0.12296  -0.0714  0.0253  1.0001  -6.5864   0.0000   0.0000   0.0000   0.2587


