xflr5 v6.61

 Calculated polar for: QX0026 thickness=13.65

 1 1 Reynolds number fixed          Mach number fixed         

 xtrf =   1.000 (top)        1.000 (bottom)
 Mach =   0.000     Re =     0.960 e 6     Ncrit =   9.000

  alpha     CL        CD       CDp       Cm    Top Xtr Bot Xtr   Cpmin    Chinge    XCp    
 ------- -------- --------- --------- -------- ------- ------- -------- --------- ---------
 -10.000  -0.4958   0.01796   0.01300  -0.1287  0.7929  0.0179  -6.9023   0.0000   0.0000   0.0000  -0.0279
  -9.750  -0.4702   0.01735   0.01231  -0.1289  0.7895  0.0183  -6.6575   0.0000   0.0000   0.0000  -0.0426
  -9.500  -0.4443   0.01677   0.01162  -0.1290  0.7862  0.0187  -6.4162   0.0000   0.0000   0.0000  -0.0591
  -9.250  -0.4180   0.01627   0.01101  -0.1291  0.7834  0.0192  -6.1747   0.0000   0.0000   0.0000  -0.0779
  -9.000  -0.3911   0.01584   0.01048  -0.1292  0.7804  0.0196  -5.9328   0.0000   0.0000   0.0000  -0.0999
  -8.750  -0.3660   0.01493   0.00945  -0.1292  0.7772  0.0201  -5.7250   0.0000   0.0000   0.0000  -0.1232
  -8.500  -0.3400   0.01428   0.00873  -0.1293  0.7744  0.0207  -5.4974   0.0000   0.0000   0.0000  -0.1511
  -8.250  -0.3128   0.01389   0.00830  -0.1295  0.7717  0.0212  -5.2576   0.0000   0.0000   0.0000  -0.1854
  -8.000  -0.2853   0.01351   0.00788  -0.1296  0.7687  0.0218  -5.0228   0.0000   0.0000   0.0000  -0.2268
  -7.750  -0.2577   0.01314   0.00743  -0.1297  0.7659  0.0224  -4.7947   0.0000   0.0000   0.0000  -0.2771
  -7.500  -0.2300   0.01282   0.00702  -0.1298  0.7633  0.0230  -4.5699   0.0000   0.0000   0.0000  -0.3399
  -7.250  -0.2027   0.01233   0.00646  -0.1300  0.7605  0.0236  -4.3614   0.0000   0.0000   0.0000  -0.4186
  -7.000  -0.1753   0.01189   0.00600  -0.1301  0.7576  0.0246  -4.1594   0.0000   0.0000   0.0000  -0.5227
  -6.750  -0.1471   0.01165   0.00573  -0.1303  0.7550  0.0255  -3.9519   0.0000   0.0000   0.0000  -0.6702
  -6.500  -0.1189   0.01142   0.00543  -0.1304  0.7525  0.0265  -3.7534   0.0000   0.0000   0.0000  -0.8879
  -6.250  -0.0904   0.01119   0.00516  -0.1306  0.7496  0.0272  -3.5581   0.0000   0.0000   0.0000  -1.2459
  -6.000  -0.0628   0.01072   0.00467  -0.1308  0.7469  0.0285  -3.3751   0.0000   0.0000   0.0000  -1.9012
  -5.750  -0.0344   0.01051   0.00443  -0.1310  0.7443  0.0297  -3.1830   0.0000   0.0000   0.0000  -3.6796
  -5.500  -0.0058   0.01033   0.00420  -0.1311  0.7418  0.0310  -2.9959   0.0000   0.0000   0.0000  -23.1497
  -5.250   0.0225   0.01002   0.00389  -0.1313  0.7389  0.0327  -2.8157   0.0000   0.0000   0.0000   6.2459
  -5.000   0.0512   0.00985   0.00370  -0.1315  0.7361  0.0344  -2.6399   0.0000   0.0000   0.0000   2.8881
  -4.750   0.0799   0.00969   0.00348  -0.1317  0.7336  0.0361  -2.4788   0.0000   0.0000   0.0000   1.9397
  -4.500   0.1085   0.00945   0.00325  -0.1319  0.7309  0.0385  -2.3202   0.0000   0.0000   0.0000   1.4951
  -4.250   0.1373   0.00931   0.00309  -0.1321  0.7278  0.0408  -2.1628   0.0000   0.0000   0.0000   1.2335
  -4.000   0.1660   0.00911   0.00289  -0.1324  0.7250  0.0442  -2.0087   0.0000   0.0000   0.0000   1.0637
  -3.500   0.2236   0.00881   0.00258  -0.1328  0.7193  0.0521  -1.7158   0.0000   0.0000   0.0000   0.8542
  -3.250   0.2524   0.00865   0.00244  -0.1330  0.7162  0.0577  -1.5827   0.0000   0.0000   0.0000   0.7853
  -3.000   0.2812   0.00851   0.00231  -0.1333  0.7134  0.0656  -1.4523   0.0000   0.0000   0.0000   0.7305
  -2.750   0.3101   0.00837   0.00220  -0.1335  0.7105  0.0767  -1.3248   0.0000   0.0000   0.0000   0.6860
  -2.500   0.3388   0.00819   0.00210  -0.1337  0.7072  0.0950  -1.2000   0.0000   0.0000   0.0000   0.6491
  -2.250   0.3676   0.00802   0.00201  -0.1340  0.7042  0.1214  -1.0863   0.0000   0.0000   0.0000   0.6180
  -2.000   0.3963   0.00787   0.00194  -0.1343  0.7014  0.1547  -0.9765   0.0000   0.0000   0.0000   0.5915
  -1.750   0.4250   0.00770   0.00190  -0.1346  0.6980  0.1920  -0.8692   0.0000   0.0000   0.0000   0.5686
  -1.500   0.4537   0.00756   0.00186  -0.1348  0.6947  0.2279  -0.7902   0.0000   0.0000   0.0000   0.5485
  -1.250   0.4825   0.00746   0.00183  -0.1351  0.6917  0.2640  -0.8082   0.0000   0.0000   0.0000   0.5308
  -1.000   0.5112   0.00733   0.00182  -0.1354  0.6883  0.3021  -0.8267   0.0000   0.0000   0.0000   0.5151
  -0.750   0.5399   0.00720   0.00181  -0.1356  0.6847  0.3449  -0.8456   0.0000   0.0000   0.0000   0.5010
  -0.500   0.5686   0.00708   0.00180  -0.1359  0.6815  0.3952  -0.8650   0.0000   0.0000   0.0000   0.4884
  -0.250   0.5971   0.00693   0.00181  -0.1362  0.6779  0.4553  -0.8848   0.0000   0.0000   0.0000   0.4770
   0.000   0.6255   0.00675   0.00184  -0.1364  0.6741  0.5294  -0.9051   0.0000   0.0000   0.0000   0.4666
   0.250   0.6535   0.00658   0.00188  -0.1365  0.6707  0.6166  -0.9257   0.0000   0.0000   0.0000   0.4571
   0.500   0.6814   0.00643   0.00194  -0.1366  0.6667  0.6945  -0.9469   0.0000   0.0000   0.0000   0.4483
   0.750   0.7090   0.00631   0.00198  -0.1365  0.6627  0.7541  -0.9684   0.0000   0.0000   0.0000   0.4400
   1.000   0.7355   0.00620   0.00203  -0.1362  0.6590  0.8210  -0.9899   0.0000   0.0000   0.0000   0.4323
   1.250   0.7579   0.00600   0.00208  -0.1347  0.6545  0.9134  -1.0098   0.0000   0.0000   0.0000   0.4245
   1.500   0.7939   0.00594   0.00206  -0.1364  0.6502  1.0001  -1.0381   0.0000   0.0000   0.0000   0.4182
   1.750   0.8223   0.00599   0.00209  -0.1365  0.6455  1.0001  -1.0626   0.0000   0.0000   0.0000   0.4122
   2.000   0.8506   0.00605   0.00211  -0.1367  0.6407  1.0001  -1.0877   0.0000   0.0000   0.0000   0.4065
   2.250   0.8789   0.00611   0.00215  -0.1368  0.6357  1.0001  -1.1137   0.0000   0.0000   0.0000   0.4012
   2.500   0.9070   0.00618   0.00219  -0.1369  0.6302  1.0001  -1.1405   0.0000   0.0000   0.0000   0.3962
   2.750   0.9351   0.00625   0.00224  -0.1370  0.6247  1.0001  -1.1682   0.0000   0.0000   0.0000   0.3915
   3.000   0.9630   0.00633   0.00229  -0.1371  0.6186  1.0001  -1.1968   0.0000   0.0000   0.0000   0.3870
   3.250   0.9909   0.00640   0.00236  -0.1372  0.6121  1.0001  -1.2267   0.0000   0.0000   0.0000   0.3827
   3.500   1.0184   0.00651   0.00243  -0.1372  0.6056  1.0001  -1.2576   0.0000   0.0000   0.0000   0.3787
   3.750   1.0461   0.00659   0.00250  -0.1373  0.5979  1.0001  -1.2900   0.0000   0.0000   0.0000   0.3749
   4.000   1.0735   0.00669   0.00255  -0.1373  0.5900  1.0001  -1.3239   0.0000   0.0000   0.0000   0.3712
   4.250   1.1005   0.00681   0.00268  -0.1372  0.5815  1.0001  -1.3593   0.0000   0.0000   0.0000   0.3677
   4.500   1.1273   0.00695   0.00279  -0.1371  0.5721  1.0001  -1.3965   0.0000   0.0000   0.0000   0.3643
   5.000   1.1800   0.00725   0.00303  -0.1368  0.5500  1.0001  -1.4773   0.0000   0.0000   0.0000   0.3579
   5.250   1.2057   0.00743   0.00318  -0.1365  0.5370  1.0001  -1.5217   0.0000   0.0000   0.0000   0.3549
   5.500   1.2308   0.00764   0.00334  -0.1361  0.5225  1.0001  -1.5705   0.0000   0.0000   0.0000   0.3519
   5.750   1.2551   0.00790   0.00354  -0.1356  0.5071  1.0001  -1.6282   0.0000   0.0000   0.0000   0.3490
   6.000   1.2788   0.00817   0.00375  -0.1350  0.4899  1.0001  -1.7022   0.0000   0.0000   0.0000   0.3462
   6.250   1.3018   0.00849   0.00399  -0.1343  0.4719  1.0001  -1.7816   0.0000   0.0000   0.0000   0.3434
   6.500   1.3237   0.00885   0.00427  -0.1334  0.4526  1.0001  -1.8644   0.0000   0.0000   0.0000   0.3407
   6.750   1.3449   0.00924   0.00457  -0.1324  0.4324  1.0001  -1.9508   0.0000   0.0000   0.0000   0.3380
   7.000   1.3660   0.00963   0.00488  -0.1313  0.4128  1.0001  -2.0434   0.0000   0.0000   0.0000   0.3353
   7.250   1.3865   0.01002   0.00520  -0.1302  0.3942  1.0001  -2.1435   0.0000   0.0000   0.0000   0.3327
   7.500   1.4060   0.01045   0.00556  -0.1290  0.3759  1.0001  -2.2496   0.0000   0.0000   0.0000   0.3302
   7.750   1.4242   0.01092   0.00594  -0.1275  0.3572  1.0001  -2.3577   0.0000   0.0000   0.0000   0.3276
   8.000   1.4403   0.01140   0.00634  -0.1256  0.3382  1.0001  -2.4655   0.0000   0.0000   0.0000   0.3249
   8.250   1.4545   0.01193   0.00680  -0.1234  0.3190  1.0001  -2.5703   0.0000   0.0000   0.0000   0.3221
   8.500   1.4678   0.01255   0.00733  -0.1212  0.2991  1.0001  -2.6776   0.0000   0.0000   0.0000   0.3194
   8.750   1.4800   0.01325   0.00794  -0.1189  0.2788  1.0001  -2.7864   0.0000   0.0000   0.0000   0.3168
   9.250   1.5017   0.01492   0.00942  -0.1143  0.2384  1.0001  -3.0002   0.0000   0.0000   0.0000   0.3118
   9.500   1.5117   0.01588   0.01028  -0.1120  0.2187  1.0001  -3.1063   0.0000   0.0000   0.0000   0.3094
   9.750   1.5212   0.01691   0.01123  -0.1099  0.1994  1.0001  -3.2171   0.0000   0.0000   0.0000   0.3070
  10.000   1.5299   0.01805   0.01228  -0.1078  0.1805  1.0001  -3.3282   0.0000   0.0000   0.0000   0.3048
  10.250   1.5381   0.01926   0.01340  -0.1057  0.1626  1.0001  -3.4390   0.0000   0.0000   0.0000   0.3026
  10.500   1.5460   0.02052   0.01459  -0.1036  0.1461  1.0001  -3.5498   0.0000   0.0000   0.0000   0.3005
  10.750   1.5532   0.02187   0.01586  -0.1016  0.1303  1.0001  -3.6593   0.0000   0.0000   0.0000   0.2984
  11.000   1.5598   0.02329   0.01720  -0.0996  0.1155  1.0001  -3.7678   0.0000   0.0000   0.0000   0.2964
  11.250   1.5665   0.02473   0.01859  -0.0977  0.1022  1.0001  -3.8802   0.0000   0.0000   0.0000   0.2944
  11.500   1.5733   0.02619   0.02000  -0.0959  0.0908  1.0001  -3.9988   0.0000   0.0000   0.0000   0.2925
  11.750   1.5797   0.02769   0.02146  -0.0941  0.0811  1.0001  -4.1166   0.0000   0.0000   0.0000   0.2907
  12.000   1.5864   0.02919   0.02294  -0.0924  0.0724  1.0001  -4.2368   0.0000   0.0000   0.0000   0.2888
  12.500   1.5988   0.03234   0.02606  -0.0891  0.0587  1.0001  -4.4764   0.0000   0.0000   0.0000   0.2853
  12.750   1.6053   0.03394   0.02766  -0.0876  0.0534  1.0001  -4.5986   0.0000   0.0000   0.0000   0.2836
  13.000   1.6116   0.03560   0.02932  -0.0861  0.0489  1.0001  -4.7255   0.0000   0.0000   0.0000   0.2820
  13.250   1.6179   0.03730   0.03104  -0.0847  0.0450  1.0001  -4.8569   0.0000   0.0000   0.0000   0.2804
  13.500   1.6248   0.03898   0.03274  -0.0835  0.0417  1.0001  -4.9924   0.0000   0.0000   0.0000   0.2789
  13.750   1.6308   0.04075   0.03455  -0.0822  0.0389  1.0001  -5.1251   0.0000   0.0000   0.0000   0.2774
  14.250   1.6421   0.04451   0.03837  -0.0799  0.0340  1.0001  -5.3906   0.0000   0.0000   0.0000   0.2746
  14.500   1.6458   0.04663   0.04051  -0.0787  0.0319  1.0001  -5.5160   0.0000   0.0000   0.0000   0.2732
  14.750   1.6520   0.04853   0.04247  -0.0778  0.0301  1.0001  -5.6535   0.0000   0.0000   0.0000   0.2719
  15.000   1.6547   0.05081   0.04478  -0.0767  0.0285  1.0001  -5.7833   0.0000   0.0000   0.0000   0.2706
  15.250   1.6597   0.05290   0.04693  -0.0758  0.0272  1.0001  -5.9258   0.0000   0.0000   0.0000   0.2694
  15.500   1.6633   0.05518   0.04926  -0.0749  0.0259  1.0001  -6.0626   0.0000   0.0000   0.0000   0.2682
  16.000   1.6682   0.06010   0.05430  -0.0734  0.0238  1.0001  -6.3254   0.0000   0.0000   0.0000   0.2660
  16.250   1.6706   0.06260   0.05685  -0.0727  0.0228  1.0001  -6.4587   0.0000   0.0000   0.0000   0.2649
  16.500   1.6702   0.06544   0.05975  -0.0721  0.0219  1.0001  -6.5773   0.0000   0.0000   0.0000   0.2640
  16.750   1.6693   0.06841   0.06279  -0.0715  0.0211  1.0001  -6.6918   0.0000   0.0000   0.0000   0.2630
  17.000   1.6714   0.07107   0.06553  -0.0711  0.0204  1.0001  -6.8239   0.0000   0.0000   0.0000   0.2621
  17.250   1.6719   0.07397   0.06850  -0.0708  0.0198  1.0001  -6.9476   0.0000   0.0000   0.0000   0.2613
  17.500   1.6705   0.07713   0.07172  -0.0705  0.0192  1.0001  -7.0612   0.0000   0.0000   0.0000   0.2606
  17.750   1.6658   0.08072   0.07538  -0.0703  0.0186  1.0001  -7.1615   0.0000   0.0000   0.0000   0.2599
  18.000   1.6603   0.08447   0.07921  -0.0702  0.0181  1.0001  -7.2550   0.0000   0.0000   0.0000   0.2594
  18.250   1.6598   0.08763   0.08246  -0.0702  0.0177  1.0001  -7.3815   0.0000   0.0000   0.0000   0.2588
  18.500   1.6580   0.09100   0.08592  -0.0703  0.0173  1.0001  -7.4997   0.0000   0.0000   0.0000   0.2582
  18.750   1.6553   0.09452   0.08952  -0.0705  0.0168  1.0001  -7.6124   0.0000   0.0000   0.0000   0.2578
  19.000   1.6510   0.09830   0.09338  -0.0709  0.0164  1.0001  -7.7141   0.0000   0.0000   0.0000   0.2575
  19.250   1.6445   0.10244   0.09760  -0.0714  0.0160  1.0001  -7.7992   0.0000   0.0000   0.0000   0.2573
  19.500   1.6344   0.10708   0.10232  -0.0722  0.0156  1.0001  -7.8572   0.0000   0.0000   0.0000   0.2574
  19.750   1.6250   0.11173   0.10707  -0.0730  0.0153  1.0001  -7.9166   0.0000   0.0000   0.0000   0.2575
  20.000   1.6215   0.11554   0.11097  -0.0739  0.0151  1.0001  -8.0172   0.0000   0.0000   0.0000   0.2574


