xflr5 v6.61

 Calculated polar for: QX0026 thickness=13.65

 1 1 Reynolds number fixed          Mach number fixed         

 xtrf =   1.000 (top)        1.000 (bottom)
 Mach =   0.000     Re =     0.220 e 6     Ncrit =   9.000

  alpha     CL        CD       CDp       Cm    Top Xtr Bot Xtr   Cpmin    Chinge    XCp    
 ------- -------- --------- --------- -------- ------- ------- -------- --------- ---------
  -9.000  -0.1435   0.08372   0.08008  -0.0996  0.8921  0.0630  -1.8958   0.0000   0.0000   0.0000  -0.4854
  -8.750  -0.1264   0.08224   0.07856  -0.0970  0.8883  0.0637  -1.7501   0.0000   0.0000   0.0000  -0.5631
  -8.500  -0.1154   0.08011   0.07641  -0.0969  0.8833  0.0650  -1.6918   0.0000   0.0000   0.0000  -0.6391
  -8.250  -0.1127   0.07661   0.07292  -0.0999  0.8776  0.0677  -1.7327   0.0000   0.0000   0.0000  -0.6845
  -7.500  -0.1657   0.03917   0.03414  -0.1377  0.8577  0.0511  -3.1304   0.0000   0.0000   0.0000  -0.6140
  -7.250  -0.1475   0.03645   0.03136  -0.1380  0.8535  0.0507  -3.0567   0.0000   0.0000   0.0000  -0.7215
  -7.000  -0.1307   0.03305   0.02767  -0.1386  0.8497  0.0496  -3.0356   0.0000   0.0000   0.0000  -0.8493
  -6.750  -0.1142   0.02912   0.02315  -0.1389  0.8458  0.0488  -3.0674   0.0000   0.0000   0.0000  -1.0107
  -6.500  -0.0934   0.02657   0.02009  -0.1389  0.8418  0.0493  -3.0264   0.0000   0.0000   0.0000  -1.2900
  -6.250  -0.0694   0.02469   0.01754  -0.1387  0.8391  0.0511  -2.9833   0.0000   0.0000   0.0000  -1.8186
  -6.000  -0.0457   0.02350   0.01637  -0.1387  0.8346  0.0525  -2.8569   0.0000   0.0000   0.0000  -2.8862
  -5.750  -0.0195   0.02246   0.01516  -0.1386  0.8315  0.0541  -2.7375   0.0000   0.0000   0.0000  -7.0657
  -5.500   0.0064   0.02147   0.01386  -0.1383  0.8281  0.0561  -2.6346   0.0000   0.0000   0.0000  22.4992
  -5.250   0.0320   0.02068   0.01300  -0.1382  0.8243  0.0586  -2.5024   0.0000   0.0000   0.0000   4.6924
  -5.000   0.0596   0.02002   0.01221  -0.1381  0.8216  0.0617  -2.3675   0.0000   0.0000   0.0000   2.6325
  -4.750   0.0851   0.01935   0.01148  -0.1379  0.8176  0.0643  -2.2473   0.0000   0.0000   0.0000   1.9137
  -4.500   0.1120   0.01887   0.01093  -0.1378  0.8142  0.0682  -2.1276   0.0000   0.0000   0.0000   1.5112
  -4.250   0.1397   0.01828   0.01035  -0.1378  0.8118  0.0727  -1.9998   0.0000   0.0000   0.0000   1.2593
  -4.000   0.1647   0.01790   0.00998  -0.1375  0.8073  0.0774  -1.8857   0.0000   0.0000   0.0000   1.1033
  -3.750   0.1919   0.01747   0.00955  -0.1374  0.8041  0.0839  -1.7618   0.0000   0.0000   0.0000   0.9808
  -3.500   0.2198   0.01704   0.00914  -0.1374  0.8016  0.0919  -1.6369   0.0000   0.0000   0.0000   0.8872
  -3.250   0.2448   0.01682   0.00898  -0.1372  0.7969  0.1021  -1.5322   0.0000   0.0000   0.0000   0.8204
  -3.000   0.2726   0.01642   0.00863  -0.1372  0.7940  0.1174  -1.4211   0.0000   0.0000   0.0000   0.7616
  -2.750   0.2992   0.01609   0.00844  -0.1372  0.7905  0.1428  -1.3134   0.0000   0.0000   0.0000   0.7153
  -2.500   0.3254   0.01576   0.00833  -0.1372  0.7864  0.1912  -1.2062   0.0000   0.0000   0.0000   0.6773
  -2.250   0.3537   0.01539   0.00817  -0.1374  0.7837  0.2579  -1.0990   0.0000   0.0000   0.0000   0.6430
  -2.000   0.3792   0.01529   0.00827  -0.1372  0.7794  0.3171  -0.9988   0.0000   0.0000   0.0000   0.6157
  -1.500   0.4347   0.01476   0.00814  -0.1373  0.7733  0.4534  -0.7955   0.0000   0.0000   0.0000   0.5681
  -1.250   0.4582   0.01468   0.00838  -0.1367  0.7682  0.5393  -0.7775   0.0000   0.0000   0.0000   0.5500
  -1.000   0.4835   0.01438   0.00840  -0.1360  0.7650  0.6447  -0.7949   0.0000   0.0000   0.0000   0.5323
  -0.750   0.5070   0.01414   0.00844  -0.1346  0.7619  0.7476  -0.8116   0.0000   0.0000   0.0000   0.5160
  -0.500   0.5246   0.01403   0.00862  -0.1319  0.7569  0.8467  -0.8251   0.0000   0.0000   0.0000   0.5015
  -0.250   0.5705   0.01372   0.00834  -0.1348  0.7544  1.0001  -0.8549   0.0000   0.0000   0.0000   0.4859
   0.000   0.5967   0.01389   0.00841  -0.1347  0.7499  1.0001  -0.8736   0.0000   0.0000   0.0000   0.4750
   0.250   0.6244   0.01396   0.00839  -0.1348  0.7458  1.0001  -0.8939   0.0000   0.0000   0.0000   0.4646
   0.500   0.6551   0.01391   0.00821  -0.1352  0.7431  1.0001  -0.9170   0.0000   0.0000   0.0000   0.4548
   0.750   0.6792   0.01417   0.00843  -0.1348  0.7374  1.0001  -0.9356   0.0000   0.0000   0.0000   0.4464
   1.000   0.7091   0.01413   0.00830  -0.1351  0.7341  1.0001  -0.9594   0.0000   0.0000   0.0000   0.4381
   1.250   0.7352   0.01430   0.00842  -0.1348  0.7292  1.0001  -0.9808   0.0000   0.0000   0.0000   0.4307
   1.500   0.7635   0.01432   0.00838  -0.1349  0.7250  1.0001  -1.0046   0.0000   0.0000   0.0000   0.4236
   1.750   0.7934   0.01430   0.00828  -0.1352  0.7216  1.0001  -1.0302   0.0000   0.0000   0.0000   0.4169
   2.000   0.8185   0.01447   0.00844  -0.1348  0.7157  1.0001  -1.0529   0.0000   0.0000   0.0000   0.4109
   2.250   0.8497   0.01436   0.00825  -0.1352  0.7126  1.0001  -1.0812   0.0000   0.0000   0.0000   0.4050
   2.500   0.8739   0.01456   0.00847  -0.1347  0.7062  1.0001  -1.1048   0.0000   0.0000   0.0000   0.3997
   2.750   0.9047   0.01446   0.00830  -0.1351  0.7026  1.0001  -1.1346   0.0000   0.0000   0.0000   0.3945
   3.000   0.9294   0.01462   0.00848  -0.1346  0.6962  1.0001  -1.1605   0.0000   0.0000   0.0000   0.3897
   3.250   0.9601   0.01451   0.00831  -0.1349  0.6923  1.0001  -1.1923   0.0000   0.0000   0.0000   0.3851
   3.500   0.9849   0.01465   0.00848  -0.1344  0.6856  1.0001  -1.2207   0.0000   0.0000   0.0000   0.3808
   3.750   1.0158   0.01452   0.00829  -0.1348  0.6814  1.0001  -1.2555   0.0000   0.0000   0.0000   0.3766
   4.000   1.0402   0.01464   0.00845  -0.1342  0.6743  1.0001  -1.2862   0.0000   0.0000   0.0000   0.3727
   4.250   1.0701   0.01455   0.00832  -0.1345  0.6693  1.0001  -1.3235   0.0000   0.0000   0.0000   0.3689
   4.500   1.0957   0.01460   0.00839  -0.1340  0.6622  1.0001  -1.3588   0.0000   0.0000   0.0000   0.3653
   4.750   1.1217   0.01463   0.00845  -0.1337  0.6551  1.0001  -1.3966   0.0000   0.0000   0.0000   0.3618
   5.000   1.1518   0.01451   0.00829  -0.1339  0.6494  1.0001  -1.4407   0.0000   0.0000   0.0000   0.3585
   5.250   1.1759   0.01459   0.00842  -0.1332  0.6409  1.0001  -1.4820   0.0000   0.0000   0.0000   0.3552
   5.500   1.2011   0.01463   0.00848  -0.1327  0.6326  1.0001  -1.5283   0.0000   0.0000   0.0000   0.3520
   5.750   1.2274   0.01463   0.00850  -0.1324  0.6245  1.0001  -1.5822   0.0000   0.0000   0.0000   0.3490
   6.000   1.2542   0.01462   0.00848  -0.1321  0.6161  1.0001  -1.6512   0.0000   0.0000   0.0000   0.3461
   6.250   1.2795   0.01465   0.00852  -0.1315  0.6067  1.0001  -1.7297   0.0000   0.0000   0.0000   0.3433
   6.500   1.3031   0.01474   0.00864  -0.1307  0.5962  1.0001  -1.8117   0.0000   0.0000   0.0000   0.3404
   6.750   1.3267   0.01484   0.00875  -0.1299  0.5851  1.0001  -1.8992   0.0000   0.0000   0.0000   0.3377
   7.000   1.3487   0.01498   0.00892  -0.1289  0.5730  1.0001  -1.9902   0.0000   0.0000   0.0000   0.3349
   7.250   1.3695   0.01517   0.00914  -0.1276  0.5594  1.0001  -2.0863   0.0000   0.0000   0.0000   0.3322
   7.500   1.3900   0.01537   0.00935  -0.1263  0.5451  1.0001  -2.1894   0.0000   0.0000   0.0000   0.3295
   7.750   1.4102   0.01560   0.00955  -0.1250  0.5300  1.0001  -2.2981   0.0000   0.0000   0.0000   0.3268
   8.000   1.4272   0.01593   0.00988  -0.1231  0.5129  1.0001  -2.4042   0.0000   0.0000   0.0000   0.3240
   8.250   1.4435   0.01632   0.01023  -0.1212  0.4957  1.0001  -2.5135   0.0000   0.0000   0.0000   0.3213
   8.500   1.4578   0.01678   0.01065  -0.1189  0.4780  1.0001  -2.6189   0.0000   0.0000   0.0000   0.3186
   8.750   1.4691   0.01730   0.01115  -0.1162  0.4606  1.0001  -2.7210   0.0000   0.0000   0.0000   0.3157
   9.000   1.4790   0.01792   0.01170  -0.1133  0.4436  1.0001  -2.8239   0.0000   0.0000   0.0000   0.3128
   9.250   1.4875   0.01863   0.01241  -0.1104  0.4260  1.0001  -2.9238   0.0000   0.0000   0.0000   0.3100
   9.500   1.4952   0.01945   0.01319  -0.1076  0.4085  1.0001  -3.0226   0.0000   0.0000   0.0000   0.3072
   9.750   1.5018   0.02038   0.01409  -0.1047  0.3907  1.0001  -3.1188   0.0000   0.0000   0.0000   0.3046
  10.000   1.5077   0.02143   0.01512  -0.1020  0.3724  1.0001  -3.2159   0.0000   0.0000   0.0000   0.3021
  10.250   1.5125   0.02262   0.01627  -0.0993  0.3541  1.0001  -3.3142   0.0000   0.0000   0.0000   0.2996
  10.500   1.5162   0.02396   0.01757  -0.0967  0.3354  1.0001  -3.4095   0.0000   0.0000   0.0000   0.2973
  10.750   1.5190   0.02543   0.01900  -0.0941  0.3165  1.0001  -3.5024   0.0000   0.0000   0.0000   0.2950
  11.000   1.5212   0.02703   0.02056  -0.0917  0.2969  1.0001  -3.5935   0.0000   0.0000   0.0000   0.2928
  11.250   1.5223   0.02877   0.02225  -0.0893  0.2773  1.0001  -3.6815   0.0000   0.0000   0.0000   0.2907
  11.500   1.5225   0.03066   0.02408  -0.0870  0.2576  1.0001  -3.7664   0.0000   0.0000   0.0000   0.2887
  12.000   1.5201   0.03484   0.02815  -0.0825  0.2183  1.0001  -3.9351   0.0000   0.0000   0.0000   0.2848
  12.250   1.5179   0.03713   0.03038  -0.0804  0.1987  1.0001  -4.0170   0.0000   0.0000   0.0000   0.2830
  12.500   1.5147   0.03958   0.03276  -0.0784  0.1797  1.0001  -4.0948   0.0000   0.0000   0.0000   0.2813
  12.750   1.5107   0.04220   0.03530  -0.0765  0.1616  1.0001  -4.1692   0.0000   0.0000   0.0000   0.2797
  13.000   1.5063   0.04498   0.03801  -0.0747  0.1449  1.0001  -4.2407   0.0000   0.0000   0.0000   0.2781
  13.250   1.5017   0.04786   0.04083  -0.0731  0.1297  1.0001  -4.3108   0.0000   0.0000   0.0000   0.2767
  13.500   1.4975   0.05078   0.04372  -0.0717  0.1165  1.0001  -4.3811   0.0000   0.0000   0.0000   0.2753
  13.750   1.4932   0.05382   0.04672  -0.0703  0.1057  1.0001  -4.4494   0.0000   0.0000   0.0000   0.2740
  14.000   1.4893   0.05689   0.04977  -0.0691  0.0966  1.0001  -4.5223   0.0000   0.0000   0.0000   0.2728
  14.250   1.4853   0.06004   0.05292  -0.0681  0.0892  1.0001  -4.5965   0.0000   0.0000   0.0000   0.2717
  14.500   1.4819   0.06319   0.05607  -0.0672  0.0829  1.0001  -4.6722   0.0000   0.0000   0.0000   0.2706
  14.750   1.4793   0.06632   0.05922  -0.0664  0.0774  1.0001  -4.7503   0.0000   0.0000   0.0000   0.2696
  15.000   1.4769   0.06946   0.06240  -0.0656  0.0726  1.0001  -4.8286   0.0000   0.0000   0.0000   0.2687
  15.250   1.4744   0.07266   0.06563  -0.0650  0.0686  1.0001  -4.9060   0.0000   0.0000   0.0000   0.2678
  15.500   1.4719   0.07587   0.06884  -0.0645  0.0651  1.0001  -4.9847   0.0000   0.0000   0.0000   0.2669
  15.750   1.4715   0.07888   0.07195  -0.0641  0.0615  1.0001  -5.0690   0.0000   0.0000   0.0000   0.2661
  16.000   1.4701   0.08199   0.07506  -0.0636  0.0588  1.0001  -5.1504   0.0000   0.0000   0.0000   0.2653
  16.250   1.4704   0.08496   0.07811  -0.0633  0.0559  1.0001  -5.2416   0.0000   0.0000   0.0000   0.2645
  16.500   1.4707   0.08787   0.08103  -0.0630  0.0536  1.0001  -5.3383   0.0000   0.0000   0.0000   0.2637
  16.750   1.4717   0.09081   0.08406  -0.0628  0.0511  1.0001  -5.4362   0.0000   0.0000   0.0000   0.2630
  17.000   1.4736   0.09339   0.08661  -0.0624  0.0491  1.0001  -5.5440   0.0000   0.0000   0.0000   0.2621
  17.250   1.4745   0.09640   0.08977  -0.0624  0.0471  1.0001  -5.6377   0.0000   0.0000   0.0000   0.2615
  17.500   1.4779   0.09884   0.09219  -0.0622  0.0453  1.0001  -5.7541   0.0000   0.0000   0.0000   0.2606
  17.750   1.4809   0.10138   0.09482  -0.0620  0.0437  1.0001  -5.8586   0.0000   0.0000   0.0000   0.2598
  18.000   1.4832   0.10417   0.09772  -0.0620  0.0421  1.0001  -5.9606   0.0000   0.0000   0.0000   0.2592
  18.250   1.4905   0.10589   0.09938  -0.0616  0.0406  1.0001  -6.1017   0.0000   0.0000   0.0000   0.2581
  18.500   1.4921   0.10880   0.10243  -0.0618  0.0393  1.0001  -6.1941   0.0000   0.0000   0.0000   0.2576
  18.750   1.4926   0.11195   0.10572  -0.0622  0.0380  1.0001  -6.2905   0.0000   0.0000   0.0000   0.2573
  19.000   1.4978   0.11416   0.10794  -0.0623  0.0368  1.0001  -6.4280   0.0000   0.0000   0.0000   0.2566
  19.250   1.5056   0.11574   0.10954  -0.0619  0.0357  1.0001  -6.5767   0.0000   0.0000   0.0000   0.2554
  19.500   1.5033   0.11943   0.11344  -0.0628  0.0348  1.0001  -6.6475   0.0000   0.0000   0.0000   0.2554
  19.750   1.5031   0.12273   0.11689  -0.0636  0.0339  1.0001  -6.7362   0.0000   0.0000   0.0000   0.2553
  20.000   1.5054   0.12554   0.11978  -0.0643  0.0331  1.0001  -6.8494   0.0000   0.0000   0.0000   0.2551


