xflr5 v6.61

 Calculated polar for: QX0026 v47

 1 1 Reynolds number fixed          Mach number fixed         

 xtrf =   1.000 (top)        1.000 (bottom)
 Mach =   0.000     Re =     0.500 e 6     Ncrit =   9.000

  alpha     CL        CD       CDp       Cm    Top Xtr Bot Xtr   Cpmin    Chinge    XCp    
 ------- -------- --------- --------- -------- ------- ------- -------- --------- ---------
  -5.000   0.0635   0.01283   0.00592  -0.1353  0.7699  0.0412  -2.5959   0.0000   0.0000   0.0000   2.4390
  -4.500   0.1202   0.01223   0.00527  -0.1358  0.7646  0.0464  -2.2778   0.0000   0.0000   0.0000   1.4059
  -4.000   0.1771   0.01170   0.00475  -0.1363  0.7593  0.0535  -1.9843   0.0000   0.0000   0.0000   1.0354
  -3.500   0.2346   0.01123   0.00426  -0.1368  0.7538  0.0644  -1.6990   0.0000   0.0000   0.0000   0.8435
  -3.000   0.2918   0.01079   0.00389  -0.1373  0.7474  0.0829  -1.4384   0.0000   0.0000   0.0000   0.7274
  -2.500   0.3498   0.01033   0.00357  -0.1380  0.7428  0.1299  -1.1921   0.0000   0.0000   0.0000   0.6491
  -2.000   0.4067   0.00983   0.00342  -0.1386  0.7360  0.2242  -0.9655   0.0000   0.0000   0.0000   0.5937
  -1.500   0.4641   0.00944   0.00328  -0.1392  0.7289  0.3187  -0.7926   0.0000   0.0000   0.0000   0.5515
  -1.000   0.5215   0.00902   0.00314  -0.1398  0.7219  0.4365  -0.8343   0.0000   0.0000   0.0000   0.5185
  -0.500   0.5778   0.00860   0.00314  -0.1401  0.7140  0.5848  -0.8757   0.0000   0.0000   0.0000   0.4920
   0.000   0.6315   0.00820   0.00322  -0.1396  0.7062  0.7593  -0.9160   0.0000   0.0000   0.0000   0.4697
   0.500   0.6818   0.00781   0.00322  -0.1376  0.6989  0.9650  -0.9594   0.0000   0.0000   0.0000   0.4497
   1.000   0.7443   0.00793   0.00319  -0.1391  0.6913  1.0001  -1.0119   0.0000   0.0000   0.0000   0.4342
   1.500   0.8008   0.00804   0.00325  -0.1394  0.6821  1.0001  -1.0612   0.0000   0.0000   0.0000   0.4207
   2.000   0.8572   0.00812   0.00331  -0.1397  0.6727  1.0001  -1.1176   0.0000   0.0000   0.0000   0.4089
   2.500   0.9133   0.00817   0.00332  -0.1399  0.6619  1.0001  -1.1783   0.0000   0.0000   0.0000   0.3985
   3.000   0.9692   0.00824   0.00335  -0.1400  0.6504  1.0001  -1.2393   0.0000   0.0000   0.0000   0.3892
   3.500   1.0247   0.00840   0.00345  -0.1401  0.6389  1.0001  -1.3073   0.0000   0.0000   0.0000   0.3808
   4.000   1.0794   0.00864   0.00365  -0.1401  0.6262  1.0001  -1.3827   0.0000   0.0000   0.0000   0.3732
   4.500   1.1332   0.00885   0.00391  -0.1399  0.6110  1.0001  -1.4580   0.0000   0.0000   0.0000   0.3663
   5.000   1.1857   0.00904   0.00411  -0.1395  0.5904  1.0001  -1.5454   0.0000   0.0000   0.0000   0.3597
   5.500   1.2355   0.00940   0.00437  -0.1386  0.5672  1.0001  -1.6429   0.0000   0.0000   0.0000   0.3536
   6.000   1.2845   0.00981   0.00477  -0.1376  0.5399  1.0001  -1.7746   0.0000   0.0000   0.0000   0.3478
   6.500   1.3292   0.01039   0.00525  -0.1358  0.5096  1.0001  -1.9077   0.0000   0.0000   0.0000   0.3422
   7.000   1.3709   0.01112   0.00588  -0.1336  0.4740  1.0001  -2.0692   0.0000   0.0000   0.0000   0.3367
   7.500   1.4068   0.01203   0.00667  -0.1304  0.4374  1.0001  -2.2798   0.0000   0.0000   0.0000   0.3312
   8.000   1.4340   0.01312   0.00762  -0.1257  0.3981  1.0001  -2.4838   0.0000   0.0000   0.0000   0.3254
   8.500   1.4541   0.01458   0.00891  -0.1202  0.3535  1.0001  -2.6845   0.0000   0.0000   0.0000   0.3196
   9.000   1.4727   0.01640   0.01058  -0.1152  0.3106  1.0001  -2.8879   0.0000   0.0000   0.0000   0.3143
   9.500   1.4877   0.01870   0.01269  -0.1103  0.2706  1.0001  -3.0851   0.0000   0.0000   0.0000   0.3094
  10.000   1.5028   0.02124   0.01506  -0.1060  0.2270  1.0001  -3.2917   0.0000   0.0000   0.0000   0.3049
  10.500   1.5163   0.02404   0.01774  -0.1019  0.1947  1.0001  -3.5039   0.0000   0.0000   0.0000   0.3006
  11.000   1.5255   0.02727   0.02079  -0.0977  0.1571  1.0001  -3.7052   0.0000   0.0000   0.0000   0.2965
  11.500   1.5379   0.03039   0.02384  -0.0941  0.1255  1.0001  -3.9198   0.0000   0.0000   0.0000   0.2927
  12.000   1.5426   0.03418   0.02750  -0.0901  0.1023  1.0001  -4.1202   0.0000   0.0000   0.0000   0.2890
  12.500   1.5532   0.03770   0.03102  -0.0869  0.0836  1.0001  -4.3478   0.0000   0.0000   0.0000   0.2855
  13.000   1.5603   0.04166   0.03492  -0.0839  0.0668  1.0001  -4.5655   0.0000   0.0000   0.0000   0.2823
  13.500   1.5648   0.04610   0.03942  -0.0810  0.0572  1.0001  -4.7748   0.0000   0.0000   0.0000   0.2793
  14.000   1.5686   0.05079   0.04416  -0.0785  0.0489  1.0001  -4.9945   0.0000   0.0000   0.0000   0.2765
  14.500   1.5757   0.05536   0.04883  -0.0766  0.0417  1.0001  -5.2300   0.0000   0.0000   0.0000   0.2740
  15.000   1.5810   0.06029   0.05385  -0.0749  0.0367  1.0001  -5.4701   0.0000   0.0000   0.0000   0.2716
  15.500   1.5824   0.06579   0.05947  -0.0734  0.0333  1.0001  -5.6983   0.0000   0.0000   0.0000   0.2695
  16.000   1.5788   0.07213   0.06596  -0.0723  0.0307  1.0001  -5.8989   0.0000   0.0000   0.0000   0.2678
  16.500   1.5715   0.07911   0.07307  -0.0716  0.0287  1.0001  -6.0809   0.0000   0.0000   0.0000   0.2663
  17.000   1.5645   0.08626   0.08042  -0.0713  0.0271  1.0001  -6.2575   0.0000   0.0000   0.0000   0.2652
  17.500   1.5578   0.09358   0.08792  -0.0716  0.0257  1.0001  -6.4364   0.0000   0.0000   0.0000   0.2643
  18.000   1.5428   0.10211   0.09657  -0.0723  0.0246  1.0001  -6.5608   0.0000   0.0000   0.0000   0.2640
  18.500   1.5394   0.10926   0.10394  -0.0733  0.0234  1.0001  -6.7558   0.0000   0.0000   0.0000   0.2635
  19.000   1.5332   0.11690   0.11175  -0.0748  0.0223  1.0001  -6.9429   0.0000   0.0000   0.0000   0.2634
  19.500   1.5237   0.12485   0.11977  -0.0766  0.0214  1.0001  -7.1007   0.0000   0.0000   0.0000   0.2636
  20.000   1.5203   0.13228   0.12745  -0.0789  0.0206  1.0001  -7.2884   0.0000   0.0000   0.0000   0.2639


