xflr5 v6.61

 Calculated polar for: QX0026 thickness=13.65

 1 1 Reynolds number fixed          Mach number fixed         

 xtrf =   1.000 (top)        1.000 (bottom)
 Mach =   0.000     Re =     0.600 e 6     Ncrit =   9.000

  alpha     CL        CD       CDp       Cm    Top Xtr Bot Xtr   Cpmin    Chinge    XCp    
 ------- -------- --------- --------- -------- ------- ------- -------- --------- ---------
 -10.000  -0.4570   0.02750   0.02321  -0.1293  0.8198  0.0210  -6.1584   0.0000   0.0000   0.0000  -0.0521
  -9.750  -0.4369   0.02600   0.02155  -0.1298  0.8157  0.0214  -5.9926   0.0000   0.0000   0.0000  -0.0663
  -9.500  -0.4165   0.02446   0.01976  -0.1302  0.8124  0.0219  -5.8369   0.0000   0.0000   0.0000  -0.0820
  -9.250  -0.3954   0.02286   0.01787  -0.1305  0.8088  0.0226  -5.6941   0.0000   0.0000   0.0000  -0.0997
  -9.000  -0.3727   0.02152   0.01622  -0.1306  0.8052  0.0231  -5.5409   0.0000   0.0000   0.0000  -0.1206
  -8.750  -0.3508   0.01982   0.01423  -0.1307  0.8023  0.0236  -5.3983   0.0000   0.0000   0.0000  -0.1433
  -8.500  -0.3262   0.01884   0.01320  -0.1309  0.7990  0.0242  -5.1945   0.0000   0.0000   0.0000  -0.1725
  -8.250  -0.3002   0.01820   0.01248  -0.1310  0.7957  0.0247  -4.9791   0.0000   0.0000   0.0000  -0.2084
  -8.000  -0.2741   0.01755   0.01169  -0.1311  0.7930  0.0254  -4.7736   0.0000   0.0000   0.0000  -0.2514
  -7.750  -0.2478   0.01686   0.01088  -0.1311  0.7898  0.0262  -4.5773   0.0000   0.0000   0.0000  -0.3038
  -7.500  -0.2210   0.01626   0.01012  -0.1312  0.7867  0.0269  -4.3821   0.0000   0.0000   0.0000  -0.3701
  -7.250  -0.1950   0.01540   0.00916  -0.1312  0.7840  0.0279  -4.1930   0.0000   0.0000   0.0000  -0.4517
  -7.000  -0.1679   0.01498   0.00872  -0.1314  0.7812  0.0288  -3.9826   0.0000   0.0000   0.0000  -0.5646
  -6.750  -0.1405   0.01455   0.00823  -0.1315  0.7780  0.0298  -3.7984   0.0000   0.0000   0.0000  -0.7225
  -6.500  -0.1128   0.01412   0.00769  -0.1316  0.7752  0.0309  -3.6231   0.0000   0.0000   0.0000  -0.9591
  -6.000  -0.0583   0.01312   0.00661  -0.1318  0.7697  0.0331  -3.2729   0.0000   0.0000   0.0000  -2.0859
  -5.750  -0.0303   0.01282   0.00627  -0.1319  0.7667  0.0347  -3.0926   0.0000   0.0000   0.0000  -4.2461
  -5.500  -0.0023   0.01247   0.00583  -0.1320  0.7642  0.0363  -2.9211   0.0000   0.0000   0.0000  -60.0813
  -5.250   0.0255   0.01212   0.00548  -0.1322  0.7616  0.0380  -2.7460   0.0000   0.0000   0.0000   5.5769
  -5.000   0.0537   0.01186   0.00519  -0.1323  0.7584  0.0400  -2.5789   0.0000   0.0000   0.0000   2.7792
  -4.750   0.0817   0.01149   0.00480  -0.1324  0.7556  0.0421  -2.4294   0.0000   0.0000   0.0000   1.9125
  -4.500   0.1103   0.01130   0.00456  -0.1326  0.7532  0.0448  -2.2745   0.0000   0.0000   0.0000   1.4811
  -4.250   0.1383   0.01101   0.00429  -0.1328  0.7501  0.0478  -2.1265   0.0000   0.0000   0.0000   1.2312
  -4.000   0.1669   0.01083   0.00407  -0.1329  0.7470  0.0512  -1.9791   0.0000   0.0000   0.0000   1.0630
  -3.750   0.1954   0.01057   0.00381  -0.1331  0.7444  0.0556  -1.8339   0.0000   0.0000   0.0000   0.9445
  -3.500   0.2239   0.01037   0.00361  -0.1333  0.7416  0.0611  -1.6953   0.0000   0.0000   0.0000   0.8560
  -3.250   0.2523   0.01017   0.00343  -0.1335  0.7383  0.0680  -1.5679   0.0000   0.0000   0.0000   0.7877
  -3.000   0.2810   0.00996   0.00325  -0.1337  0.7353  0.0777  -1.4419   0.0000   0.0000   0.0000   0.7329
  -2.750   0.3098   0.00977   0.00309  -0.1340  0.7328  0.0937  -1.3172   0.0000   0.0000   0.0000   0.6882
  -2.500   0.3379   0.00954   0.00298  -0.1342  0.7293  0.1204  -1.1961   0.0000   0.0000   0.0000   0.6516
  -2.250   0.3663   0.00931   0.00288  -0.1344  0.7260  0.1597  -1.0848   0.0000   0.0000   0.0000   0.6206
  -2.000   0.3951   0.00913   0.00281  -0.1347  0.7233  0.2028  -0.9757   0.0000   0.0000   0.0000   0.5938
  -1.750   0.4234   0.00897   0.00277  -0.1349  0.7200  0.2440  -0.8695   0.0000   0.0000   0.0000   0.5708
  -1.500   0.4519   0.00881   0.00274  -0.1352  0.7165  0.2847  -0.7871   0.0000   0.0000   0.0000   0.5506
  -1.000   0.5090   0.00852   0.00268  -0.1357  0.7103  0.3803  -0.8235   0.0000   0.0000   0.0000   0.5169
  -0.750   0.5371   0.00834   0.00269  -0.1359  0.7066  0.4414  -0.8421   0.0000   0.0000   0.0000   0.5028
  -0.500   0.5654   0.00815   0.00269  -0.1360  0.7034  0.5164  -0.8614   0.0000   0.0000   0.0000   0.4901
  -0.250   0.5931   0.00795   0.00273  -0.1361  0.7001  0.6024  -0.8808   0.0000   0.0000   0.0000   0.4785
   0.000   0.6199   0.00775   0.00279  -0.1359  0.6962  0.6943  -0.9004   0.0000   0.0000   0.0000   0.4679
   0.250   0.6467   0.00759   0.00281  -0.1356  0.6928  0.7652  -0.9205   0.0000   0.0000   0.0000   0.4579
   0.500   0.6712   0.00743   0.00287  -0.1347  0.6892  0.8403  -0.9398   0.0000   0.0000   0.0000   0.4485
   0.750   0.6950   0.00723   0.00287  -0.1333  0.6851  0.9430  -0.9594   0.0000   0.0000   0.0000   0.4393
   1.000   0.7346   0.00722   0.00280  -0.1358  0.6816  1.0001  -0.9882   0.0000   0.0000   0.0000   0.4321
   1.250   0.7626   0.00726   0.00283  -0.1359  0.6772  1.0001  -1.0110   0.0000   0.0000   0.0000   0.4251
   1.500   0.7908   0.00731   0.00284  -0.1360  0.6729  1.0001  -1.0347   0.0000   0.0000   0.0000   0.4186
   1.750   0.8191   0.00737   0.00285  -0.1362  0.6689  1.0001  -1.0591   0.0000   0.0000   0.0000   0.4125
   2.000   0.8470   0.00742   0.00289  -0.1362  0.6640  1.0001  -1.0840   0.0000   0.0000   0.0000   0.4067
   2.500   0.9030   0.00754   0.00296  -0.1364  0.6543  1.0001  -1.1364   0.0000   0.0000   0.0000   0.3963
   2.750   0.9310   0.00761   0.00298  -0.1365  0.6496  1.0001  -1.1642   0.0000   0.0000   0.0000   0.3915
   3.000   0.9585   0.00767   0.00305  -0.1365  0.6437  1.0001  -1.1924   0.0000   0.0000   0.0000   0.3870
   3.250   0.9864   0.00775   0.00309  -0.1365  0.6385  1.0001  -1.2222   0.0000   0.0000   0.0000   0.3827
   3.500   1.0136   0.00781   0.00317  -0.1365  0.6318  1.0001  -1.2528   0.0000   0.0000   0.0000   0.3786
   3.750   1.0409   0.00790   0.00323  -0.1364  0.6256  1.0001  -1.2849   0.0000   0.0000   0.0000   0.3748
   4.000   1.0680   0.00798   0.00331  -0.1364  0.6186  1.0001  -1.3185   0.0000   0.0000   0.0000   0.3710
   4.250   1.0949   0.00807   0.00341  -0.1363  0.6110  1.0001  -1.3536   0.0000   0.0000   0.0000   0.3675
   4.500   1.1216   0.00818   0.00350  -0.1361  0.6033  1.0001  -1.3906   0.0000   0.0000   0.0000   0.3641
   4.750   1.1480   0.00830   0.00360  -0.1359  0.5950  1.0001  -1.4295   0.0000   0.0000   0.0000   0.3608
   5.000   1.1741   0.00843   0.00372  -0.1357  0.5857  1.0001  -1.4707   0.0000   0.0000   0.0000   0.3576
   5.250   1.1999   0.00857   0.00385  -0.1354  0.5755  1.0001  -1.5149   0.0000   0.0000   0.0000   0.3545
   5.500   1.2253   0.00873   0.00400  -0.1350  0.5646  1.0001  -1.5634   0.0000   0.0000   0.0000   0.3516
   5.750   1.2500   0.00892   0.00416  -0.1346  0.5527  1.0001  -1.6202   0.0000   0.0000   0.0000   0.3487
   6.000   1.2744   0.00912   0.00434  -0.1340  0.5393  1.0001  -1.6935   0.0000   0.0000   0.0000   0.3458
   6.250   1.2979   0.00936   0.00455  -0.1334  0.5243  1.0001  -1.7730   0.0000   0.0000   0.0000   0.3430
   6.500   1.3201   0.00966   0.00479  -0.1325  0.5082  1.0001  -1.8555   0.0000   0.0000   0.0000   0.3403
   6.750   1.3416   0.00999   0.00506  -0.1315  0.4901  1.0001  -1.9420   0.0000   0.0000   0.0000   0.3376
   7.000   1.3618   0.01037   0.00538  -0.1302  0.4712  1.0001  -2.0323   0.0000   0.0000   0.0000   0.3348
   7.250   1.3808   0.01080   0.00573  -0.1288  0.4521  1.0001  -2.1282   0.0000   0.0000   0.0000   0.3321
   7.500   1.3990   0.01125   0.00611  -0.1273  0.4333  1.0001  -2.2302   0.0000   0.0000   0.0000   0.3294
   7.750   1.4168   0.01170   0.00650  -0.1257  0.4150  1.0001  -2.3350   0.0000   0.0000   0.0000   0.3268
   8.000   1.4317   0.01219   0.00693  -0.1236  0.3975  1.0001  -2.4396   0.0000   0.0000   0.0000   0.3240
   8.250   1.4450   0.01274   0.00743  -0.1213  0.3796  1.0001  -2.5418   0.0000   0.0000   0.0000   0.3212
   8.500   1.4583   0.01334   0.00797  -0.1191  0.3612  1.0001  -2.6459   0.0000   0.0000   0.0000   0.3185
   8.750   1.4704   0.01403   0.00859  -0.1168  0.3425  1.0001  -2.7538   0.0000   0.0000   0.0000   0.3159
   9.000   1.4815   0.01483   0.00932  -0.1145  0.3232  1.0001  -2.8601   0.0000   0.0000   0.0000   0.3133
   9.250   1.4916   0.01572   0.01014  -0.1122  0.3035  1.0001  -2.9651   0.0000   0.0000   0.0000   0.3109
   9.500   1.5010   0.01672   0.01105  -0.1099  0.2834  1.0001  -3.0690   0.0000   0.0000   0.0000   0.3085
   9.750   1.5097   0.01782   0.01207  -0.1077  0.2630  1.0001  -3.1734   0.0000   0.0000   0.0000   0.3061
  10.000   1.5177   0.01901   0.01318  -0.1056  0.2429  1.0001  -3.2815   0.0000   0.0000   0.0000   0.3039
  10.250   1.5248   0.02031   0.01439  -0.1034  0.2231  1.0001  -3.3880   0.0000   0.0000   0.0000   0.3017
  10.500   1.5312   0.02170   0.01569  -0.1013  0.2036  1.0001  -3.4929   0.0000   0.0000   0.0000   0.2996
  10.750   1.5368   0.02318   0.01709  -0.0992  0.1849  1.0001  -3.5961   0.0000   0.0000   0.0000   0.2975
  11.000   1.5419   0.02472   0.01854  -0.0971  0.1668  1.0001  -3.6987   0.0000   0.0000   0.0000   0.2955
  11.250   1.5468   0.02631   0.02006  -0.0951  0.1496  1.0001  -3.8010   0.0000   0.0000   0.0000   0.2935
  11.500   1.5511   0.02797   0.02166  -0.0931  0.1338  1.0001  -3.9071   0.0000   0.0000   0.0000   0.2915
  11.750   1.5549   0.02970   0.02333  -0.0911  0.1189  1.0001  -4.0137   0.0000   0.0000   0.0000   0.2896
  12.000   1.5583   0.03150   0.02506  -0.0892  0.1054  1.0001  -4.1195   0.0000   0.0000   0.0000   0.2878
  12.250   1.5612   0.03334   0.02686  -0.0873  0.0937  1.0001  -4.2243   0.0000   0.0000   0.0000   0.2860
  12.500   1.5647   0.03520   0.02869  -0.0856  0.0833  1.0001  -4.3316   0.0000   0.0000   0.0000   0.2843
  12.750   1.5684   0.03711   0.03058  -0.0840  0.0748  1.0001  -4.4399   0.0000   0.0000   0.0000   0.2826
  13.000   1.5723   0.03904   0.03250  -0.0825  0.0675  1.0001  -4.5497   0.0000   0.0000   0.0000   0.2810
  13.250   1.5758   0.04104   0.03450  -0.0810  0.0614  1.0001  -4.6614   0.0000   0.0000   0.0000   0.2794
  13.500   1.5794   0.04309   0.03657  -0.0797  0.0562  1.0001  -4.7787   0.0000   0.0000   0.0000   0.2780
  13.750   1.5831   0.04519   0.03869  -0.0784  0.0518  1.0001  -4.8968   0.0000   0.0000   0.0000   0.2765
  14.000   1.5862   0.04738   0.04091  -0.0773  0.0481  1.0001  -5.0133   0.0000   0.0000   0.0000   0.2751
  14.250   1.5881   0.04972   0.04327  -0.0761  0.0450  1.0001  -5.1248   0.0000   0.0000   0.0000   0.2738
  14.500   1.5921   0.05192   0.04553  -0.0751  0.0422  1.0001  -5.2455   0.0000   0.0000   0.0000   0.2725
  14.750   1.5930   0.05448   0.04812  -0.0741  0.0399  1.0001  -5.3528   0.0000   0.0000   0.0000   0.2713
  15.000   1.5963   0.05683   0.05054  -0.0733  0.0376  1.0001  -5.4716   0.0000   0.0000   0.0000   0.2701
  15.250   1.5955   0.05968   0.05342  -0.0724  0.0358  1.0001  -5.5735   0.0000   0.0000   0.0000   0.2691
  15.500   1.5988   0.06211   0.05594  -0.0717  0.0340  1.0001  -5.7014   0.0000   0.0000   0.0000   0.2680
  15.750   1.5973   0.06510   0.05897  -0.0711  0.0325  1.0001  -5.8066   0.0000   0.0000   0.0000   0.2670
  16.000   1.5976   0.06797   0.06193  -0.0705  0.0311  1.0001  -5.9191   0.0000   0.0000   0.0000   0.2661
  16.250   1.5984   0.07082   0.06485  -0.0701  0.0298  1.0001  -6.0355   0.0000   0.0000   0.0000   0.2652
  16.500   1.5952   0.07420   0.06828  -0.0697  0.0288  1.0001  -6.1315   0.0000   0.0000   0.0000   0.2644
  16.750   1.5917   0.07769   0.07185  -0.0694  0.0278  1.0001  -6.2226   0.0000   0.0000   0.0000   0.2638
  17.000   1.5915   0.08076   0.07503  -0.0692  0.0269  1.0001  -6.3326   0.0000   0.0000   0.0000   0.2631
  17.250   1.5897   0.08408   0.07843  -0.0691  0.0260  1.0001  -6.4350   0.0000   0.0000   0.0000   0.2624
  17.500   1.5846   0.08790   0.08231  -0.0692  0.0252  1.0001  -6.5184   0.0000   0.0000   0.0000   0.2620
  17.750   1.5766   0.09220   0.08668  -0.0694  0.0246  1.0001  -6.5810   0.0000   0.0000   0.0000   0.2618
  18.000   1.5760   0.09551   0.09010  -0.0696  0.0238  1.0001  -6.6867   0.0000   0.0000   0.0000   0.2613
  18.250   1.5734   0.09913   0.09382  -0.0700  0.0231  1.0001  -6.7822   0.0000   0.0000   0.0000   0.2610
  18.500   1.5696   0.10293   0.09770  -0.0705  0.0225  1.0001  -6.8770   0.0000   0.0000   0.0000   0.2608
  18.750   1.5635   0.10707   0.10192  -0.0712  0.0220  1.0001  -6.9558   0.0000   0.0000   0.0000   0.2607
  19.000   1.5541   0.11175   0.10666  -0.0720  0.0215  1.0001  -7.0094   0.0000   0.0000   0.0000   0.2610
  19.250   1.5486   0.11592   0.11093  -0.0729  0.0211  1.0001  -7.0851   0.0000   0.0000   0.0000   0.2611
  19.500   1.5457   0.11977   0.11488  -0.0739  0.0206  1.0001  -7.1774   0.0000   0.0000   0.0000   0.2611
  19.750   1.5420   0.12375   0.11896  -0.0749  0.0202  1.0001  -7.2632   0.0000   0.0000   0.0000   0.2613
  20.000   1.5380   0.12779   0.12310  -0.0761  0.0197  1.0001  -7.3467   0.0000   0.0000   0.0000   0.2615


