xflr5 v6.61

 Calculated polar for: QX0026 thickness=13.65

 1 1 Reynolds number fixed          Mach number fixed         

 xtrf =   1.000 (top)        1.000 (bottom)
 Mach =   0.000     Re =     0.360 e 6     Ncrit =   9.000

  alpha     CL        CD       CDp       Cm    Top Xtr Bot Xtr   Cpmin    Chinge    XCp    
 ------- -------- --------- --------- -------- ------- ------- -------- --------- ---------
 -10.000  -0.1713   0.09754   0.09430  -0.0780  0.8643  0.0394  -1.7714   0.0000   0.0000   0.0000  -0.2437
  -9.750  -0.1871   0.08981   0.08659  -0.0851  0.8589  0.0409  -2.1101   0.0000   0.0000   0.0000  -0.2395
  -9.500  -0.1741   0.08821   0.08496  -0.0842  0.8549  0.0412  -1.9793   0.0000   0.0000   0.0000  -0.2703
  -9.250  -0.1621   0.08642   0.08315  -0.0843  0.8505  0.0419  -1.8770   0.0000   0.0000   0.0000  -0.3074
  -9.000  -0.1542   0.08381   0.08052  -0.0854  0.8466  0.0432  -1.8385   0.0000   0.0000   0.0000  -0.3424
  -8.500  -0.2350   0.04596   0.04240  -0.1246  0.8340  0.0355  -3.4734   0.0000   0.0000   0.0000  -0.3064
  -8.250  -0.2248   0.04256   0.03887  -0.1269  0.8305  0.0349  -3.4427   0.0000   0.0000   0.0000  -0.3408
  -8.000  -0.2045   0.04217   0.03847  -0.1277  0.8265  0.0373  -3.2377   0.0000   0.0000   0.0000  -0.4017
  -7.750  -0.1849   0.04135   0.03756  -0.1290  0.8228  0.0419  -3.0605   0.0000   0.0000   0.0000  -0.4765
  -7.500  -0.2053   0.02339   0.01757  -0.1340  0.8185  0.0335  -3.9516   0.0000   0.0000   0.0000  -0.4308
  -7.250  -0.1813   0.02196   0.01582  -0.1341  0.8150  0.0347  -3.8261   0.0000   0.0000   0.0000  -0.5198
  -7.000  -0.1564   0.02058   0.01400  -0.1340  0.8122  0.0357  -3.7114   0.0000   0.0000   0.0000  -0.6408
  -6.750  -0.1314   0.01926   0.01257  -0.1341  0.8089  0.0366  -3.5614   0.0000   0.0000   0.0000  -0.8091
  -6.500  -0.1050   0.01856   0.01181  -0.1341  0.8055  0.0377  -3.3998   0.0000   0.0000   0.0000  -1.0742
  -6.250  -0.0780   0.01786   0.01097  -0.1341  0.8029  0.0392  -3.2501   0.0000   0.0000   0.0000  -1.5301
  -6.000  -0.0510   0.01721   0.01010  -0.1341  0.7997  0.0409  -3.1103   0.0000   0.0000   0.0000  -2.4656
  -5.750  -0.0244   0.01655   0.00949  -0.1342  0.7963  0.0426  -2.9451   0.0000   0.0000   0.0000  -5.4234
  -5.500   0.0032   0.01603   0.00886  -0.1342  0.7937  0.0444  -2.7911   0.0000   0.0000   0.0000  43.7292
  -5.250   0.0304   0.01544   0.00817  -0.1342  0.7907  0.0463  -2.6460   0.0000   0.0000   0.0000   4.7920
  -5.000   0.0575   0.01502   0.00778  -0.1343  0.7873  0.0487  -2.4847   0.0000   0.0000   0.0000   2.6494
  -4.750   0.0853   0.01461   0.00727  -0.1343  0.7845  0.0516  -2.3462   0.0000   0.0000   0.0000   1.8639
  -4.500   0.1129   0.01420   0.00689  -0.1344  0.7820  0.0546  -2.2046   0.0000   0.0000   0.0000   1.4687
  -4.250   0.1401   0.01381   0.00649  -0.1344  0.7783  0.0580  -2.0726   0.0000   0.0000   0.0000   1.2313
  -4.000   0.1682   0.01355   0.00618  -0.1345  0.7753  0.0626  -1.9333   0.0000   0.0000   0.0000   1.0666
  -3.750   0.1964   0.01320   0.00584  -0.1346  0.7730  0.0678  -1.7959   0.0000   0.0000   0.0000   0.9491
  -3.500   0.2236   0.01292   0.00560  -0.1347  0.7692  0.0742  -1.6674   0.0000   0.0000   0.0000   0.8633
  -3.250   0.2517   0.01264   0.00533  -0.1348  0.7660  0.0831  -1.5472   0.0000   0.0000   0.0000   0.7946
  -3.000   0.2803   0.01236   0.00507  -0.1350  0.7635  0.0959  -1.4266   0.0000   0.0000   0.0000   0.7391
  -2.750   0.3077   0.01208   0.00492  -0.1351  0.7599  0.1171  -1.3102   0.0000   0.0000   0.0000   0.6951
  -2.500   0.3356   0.01177   0.00477  -0.1353  0.7565  0.1571  -1.1934   0.0000   0.0000   0.0000   0.6581
  -2.250   0.3641   0.01150   0.00465  -0.1356  0.7538  0.2111  -1.0840   0.0000   0.0000   0.0000   0.6263
  -2.000   0.3918   0.01132   0.00463  -0.1357  0.7503  0.2608  -0.9781   0.0000   0.0000   0.0000   0.5996
  -1.750   0.4197   0.01115   0.00459  -0.1359  0.7467  0.3092  -0.8734   0.0000   0.0000   0.0000   0.5762
  -1.500   0.4483   0.01095   0.00452  -0.1361  0.7439  0.3628  -0.7803   0.0000   0.0000   0.0000   0.5554
  -1.250   0.4758   0.01078   0.00454  -0.1362  0.7404  0.4247  -0.7977   0.0000   0.0000   0.0000   0.5375
  -1.000   0.5031   0.01056   0.00456  -0.1362  0.7366  0.5010  -0.8156   0.0000   0.0000   0.0000   0.5214
  -0.750   0.5306   0.01030   0.00455  -0.1362  0.7337  0.5919  -0.8343   0.0000   0.0000   0.0000   0.5067
  -0.500   0.5562   0.01010   0.00465  -0.1356  0.7300  0.6895  -0.8521   0.0000   0.0000   0.0000   0.4935
  -0.250   0.5807   0.00990   0.00469  -0.1347  0.7262  0.7744  -0.8700   0.0000   0.0000   0.0000   0.4812
   0.000   0.6031   0.00967   0.00467  -0.1330  0.7232  0.8634  -0.8875   0.0000   0.0000   0.0000   0.4693
   0.250   0.6405   0.00952   0.00462  -0.1346  0.7192  0.9805  -0.9132   0.0000   0.0000   0.0000   0.4586
   0.500   0.6724   0.00954   0.00457  -0.1355  0.7153  1.0001  -0.9365   0.0000   0.0000   0.0000   0.4496
   0.750   0.7018   0.00958   0.00450  -0.1358  0.7123  1.0001  -0.9591   0.0000   0.0000   0.0000   0.4412
   1.000   0.7285   0.00966   0.00457  -0.1357  0.7074  1.0001  -0.9804   0.0000   0.0000   0.0000   0.4336
   1.250   0.7571   0.00969   0.00453  -0.1359  0.7036  1.0001  -1.0037   0.0000   0.0000   0.0000   0.4265
   1.500   0.7852   0.00976   0.00455  -0.1360  0.6996  1.0001  -1.0273   0.0000   0.0000   0.0000   0.4198
   1.750   0.8128   0.00981   0.00458  -0.1360  0.6949  1.0001  -1.0513   0.0000   0.0000   0.0000   0.4136
   2.000   0.8423   0.00984   0.00453  -0.1363  0.6914  1.0001  -1.0773   0.0000   0.0000   0.0000   0.4078
   2.250   0.8687   0.00992   0.00462  -0.1361  0.6859  1.0001  -1.1019   0.0000   0.0000   0.0000   0.4023
   2.500   0.8975   0.00995   0.00459  -0.1363  0.6817  1.0001  -1.1293   0.0000   0.0000   0.0000   0.3972
   2.750   0.9243   0.01003   0.00468  -0.1361  0.6762  1.0001  -1.1559   0.0000   0.0000   0.0000   0.3923
   3.000   0.9527   0.01006   0.00467  -0.1362  0.6715  1.0001  -1.1850   0.0000   0.0000   0.0000   0.3877
   3.250   0.9794   0.01013   0.00475  -0.1361  0.6657  1.0001  -1.2138   0.0000   0.0000   0.0000   0.3833
   3.500   1.0077   0.01017   0.00475  -0.1362  0.6606  1.0001  -1.2453   0.0000   0.0000   0.0000   0.3792
   3.750   1.0340   0.01024   0.00484  -0.1359  0.6541  1.0001  -1.2764   0.0000   0.0000   0.0000   0.3752
   4.000   1.0621   0.01029   0.00484  -0.1360  0.6487  1.0001  -1.3108   0.0000   0.0000   0.0000   0.3715
   4.250   1.0880   0.01036   0.00495  -0.1356  0.6414  1.0001  -1.3449   0.0000   0.0000   0.0000   0.3678
   4.500   1.1145   0.01043   0.00503  -0.1354  0.6344  1.0001  -1.3815   0.0000   0.0000   0.0000   0.3643
   4.750   1.1417   0.01049   0.00505  -0.1353  0.6277  1.0001  -1.4209   0.0000   0.0000   0.0000   0.3610
   5.000   1.1670   0.01058   0.00518  -0.1349  0.6191  1.0001  -1.4612   0.0000   0.0000   0.0000   0.3577
   5.250   1.1925   0.01068   0.00530  -0.1345  0.6104  1.0001  -1.5047   0.0000   0.0000   0.0000   0.3546
   5.500   1.2179   0.01079   0.00541  -0.1341  0.6013  1.0001  -1.5525   0.0000   0.0000   0.0000   0.3515
   5.750   1.2429   0.01092   0.00555  -0.1336  0.5916  1.0001  -1.6078   0.0000   0.0000   0.0000   0.3486
   6.000   1.2674   0.01106   0.00569  -0.1331  0.5810  1.0001  -1.6784   0.0000   0.0000   0.0000   0.3457
   6.250   1.2913   0.01123   0.00586  -0.1324  0.5694  1.0001  -1.7574   0.0000   0.0000   0.0000   0.3429
   6.500   1.3145   0.01142   0.00605  -0.1316  0.5568  1.0001  -1.8406   0.0000   0.0000   0.0000   0.3401
   6.750   1.3368   0.01165   0.00625  -0.1307  0.5433  1.0001  -1.9276   0.0000   0.0000   0.0000   0.3374
   7.000   1.3581   0.01191   0.00650  -0.1296  0.5282  1.0001  -2.0192   0.0000   0.0000   0.0000   0.3347
   7.250   1.3781   0.01223   0.00678  -0.1283  0.5115  1.0001  -2.1160   0.0000   0.0000   0.0000   0.3320
   7.500   1.3966   0.01261   0.00711  -0.1267  0.4938  1.0001  -2.2174   0.0000   0.0000   0.0000   0.3292
   7.750   1.4134   0.01306   0.00749  -0.1249  0.4757  1.0001  -2.3187   0.0000   0.0000   0.0000   0.3265
   8.000   1.4293   0.01352   0.00791  -0.1230  0.4574  1.0001  -2.4248   0.0000   0.0000   0.0000   0.3238
   8.250   1.4426   0.01404   0.00838  -0.1206  0.4400  1.0001  -2.5267   0.0000   0.0000   0.0000   0.3209
   8.500   1.4539   0.01462   0.00892  -0.1179  0.4228  1.0001  -2.6247   0.0000   0.0000   0.0000   0.3180
   8.750   1.4651   0.01527   0.00953  -0.1154  0.4051  1.0001  -2.7283   0.0000   0.0000   0.0000   0.3153
   9.000   1.4750   0.01602   0.01023  -0.1128  0.3876  1.0001  -2.8310   0.0000   0.0000   0.0000   0.3126
   9.250   1.4842   0.01688   0.01104  -0.1103  0.3695  1.0001  -2.9328   0.0000   0.0000   0.0000   0.3100
   9.500   1.4929   0.01783   0.01195  -0.1078  0.3508  1.0001  -3.0341   0.0000   0.0000   0.0000   0.3075
   9.750   1.5005   0.01890   0.01297  -0.1054  0.3319  1.0001  -3.1332   0.0000   0.0000   0.0000   0.3051
  10.000   1.5072   0.02011   0.01412  -0.1031  0.3125  1.0001  -3.2351   0.0000   0.0000   0.0000   0.3027
  10.250   1.5130   0.02143   0.01537  -0.1008  0.2929  1.0001  -3.3367   0.0000   0.0000   0.0000   0.3005
  10.500   1.5182   0.02287   0.01675  -0.0985  0.2731  1.0001  -3.4368   0.0000   0.0000   0.0000   0.2983
  10.750   1.5225   0.02441   0.01822  -0.0963  0.2531  1.0001  -3.5349   0.0000   0.0000   0.0000   0.2962
  11.000   1.5261   0.02606   0.01980  -0.0941  0.2333  1.0001  -3.6311   0.0000   0.0000   0.0000   0.2942
  11.250   1.5289   0.02780   0.02147  -0.0920  0.2139  1.0001  -3.7254   0.0000   0.0000   0.0000   0.2922
  11.500   1.5308   0.02966   0.02324  -0.0899  0.1949  1.0001  -3.8171   0.0000   0.0000   0.0000   0.2902
  11.750   1.5321   0.03161   0.02513  -0.0878  0.1765  1.0001  -3.9128   0.0000   0.0000   0.0000   0.2883
  12.000   1.5330   0.03362   0.02707  -0.0858  0.1588  1.0001  -4.0075   0.0000   0.0000   0.0000   0.2865
  12.250   1.5335   0.03572   0.02910  -0.0838  0.1418  1.0001  -4.1011   0.0000   0.0000   0.0000   0.2847
  12.500   1.5337   0.03791   0.03123  -0.0820  0.1261  1.0001  -4.1933   0.0000   0.0000   0.0000   0.2830
  12.750   1.5334   0.04020   0.03347  -0.0802  0.1120  1.0001  -4.2839   0.0000   0.0000   0.0000   0.2813
  13.000   1.5330   0.04258   0.03581  -0.0786  0.0999  1.0001  -4.3733   0.0000   0.0000   0.0000   0.2798
  13.250   1.5328   0.04502   0.03822  -0.0771  0.0894  1.0001  -4.4637   0.0000   0.0000   0.0000   0.2783
  13.500   1.5326   0.04753   0.04071  -0.0757  0.0809  1.0001  -4.5533   0.0000   0.0000   0.0000   0.2768
  13.750   1.5326   0.05005   0.04325  -0.0744  0.0737  1.0001  -4.6507   0.0000   0.0000   0.0000   0.2755
  14.000   1.5324   0.05267   0.04588  -0.0732  0.0679  1.0001  -4.7470   0.0000   0.0000   0.0000   0.2742
  14.250   1.5319   0.05540   0.04863  -0.0722  0.0631  1.0001  -4.8417   0.0000   0.0000   0.0000   0.2730
  14.500   1.5302   0.05832   0.05157  -0.0712  0.0591  1.0001  -4.9311   0.0000   0.0000   0.0000   0.2718
  14.750   1.5304   0.06108   0.05439  -0.0704  0.0554  1.0001  -5.0283   0.0000   0.0000   0.0000   0.2707
  15.000   1.5296   0.06399   0.05736  -0.0696  0.0522  1.0001  -5.1204   0.0000   0.0000   0.0000   0.2697
  15.250   1.5262   0.06726   0.06066  -0.0689  0.0497  1.0001  -5.2020   0.0000   0.0000   0.0000   0.2688
  15.500   1.5268   0.07014   0.06363  -0.0684  0.0470  1.0001  -5.2993   0.0000   0.0000   0.0000   0.2679
  15.750   1.5225   0.07365   0.06716  -0.0680  0.0450  1.0001  -5.3759   0.0000   0.0000   0.0000   0.2672
  16.000   1.5223   0.07672   0.07034  -0.0676  0.0429  1.0001  -5.4760   0.0000   0.0000   0.0000   0.2664
  16.250   1.5197   0.08009   0.07378  -0.0674  0.0412  1.0001  -5.5660   0.0000   0.0000   0.0000   0.2657
  16.500   1.5150   0.08375   0.07749  -0.0672  0.0398  1.0001  -5.6434   0.0000   0.0000   0.0000   0.2651
  16.750   1.5144   0.08699   0.08084  -0.0671  0.0381  1.0001  -5.7406   0.0000   0.0000   0.0000   0.2645
  17.000   1.5116   0.09054   0.08443  -0.0672  0.0368  1.0001  -5.8285   0.0000   0.0000   0.0000   0.2641
  17.250   1.5071   0.09428   0.08823  -0.0673  0.0357  1.0001  -5.9048   0.0000   0.0000   0.0000   0.2637
  17.500   1.5066   0.09761   0.09168  -0.0676  0.0343  1.0001  -6.0003   0.0000   0.0000   0.0000   0.2633
  17.750   1.5047   0.10110   0.09524  -0.0679  0.0332  1.0001  -6.0906   0.0000   0.0000   0.0000   0.2629
  18.000   1.5010   0.10475   0.09891  -0.0683  0.0323  1.0001  -6.1714   0.0000   0.0000   0.0000   0.2627
  18.250   1.4994   0.10820   0.10246  -0.0686  0.0314  1.0001  -6.2576   0.0000   0.0000   0.0000   0.2624
  18.500   1.4986   0.11162   0.10599  -0.0692  0.0304  1.0001  -6.3479   0.0000   0.0000   0.0000   0.2621
  18.750   1.4977   0.11505   0.10949  -0.0698  0.0295  1.0001  -6.4414   0.0000   0.0000   0.0000   0.2620
  19.000   1.4969   0.11840   0.11287  -0.0705  0.0288  1.0001  -6.5441   0.0000   0.0000   0.0000   0.2618
  19.250   1.4968   0.12150   0.11599  -0.0710  0.0280  1.0001  -6.6481   0.0000   0.0000   0.0000   0.2615
  19.500   1.4957   0.12511   0.11976  -0.0720  0.0272  1.0001  -6.7400   0.0000   0.0000   0.0000   0.2615
  19.750   1.4950   0.12857   0.12332  -0.0730  0.0264  1.0001  -6.8374   0.0000   0.0000   0.0000   0.2616
  20.000   1.4950   0.13191   0.12672  -0.0740  0.0257  1.0001  -6.9417   0.0000   0.0000   0.0000   0.2616


