xflr5 v6.61

 Calculated polar for: QX0026 v44

 1 1 Reynolds number fixed          Mach number fixed         

 xtrf =   1.000 (top)        1.000 (bottom)
 Mach =   0.000     Re =     0.500 e 6     Ncrit =   9.000

  alpha     CL        CD       CDp       Cm    Top Xtr Bot Xtr   Cpmin    Chinge    XCp    
 ------- -------- --------- --------- -------- ------- ------- -------- --------- ---------
  -5.000   0.0643   0.01282   0.00589  -0.1338  0.7654  0.0405  -2.6023   0.0000   0.0000   0.0000   2.3875
  -4.500   0.1206   0.01212   0.00517  -0.1342  0.7601  0.0463  -2.2945   0.0000   0.0000   0.0000   1.3898
  -4.000   0.1776   0.01161   0.00465  -0.1347  0.7549  0.0549  -1.9984   0.0000   0.0000   0.0000   1.0243
  -3.500   0.2348   0.01118   0.00423  -0.1352  0.7495  0.0679  -1.7116   0.0000   0.0000   0.0000   0.8362
  -3.000   0.2925   0.01079   0.00386  -0.1358  0.7445  0.0897  -1.4315   0.0000   0.0000   0.0000   0.7212
  -2.500   0.3497   0.01039   0.00364  -0.1364  0.7391  0.1309  -1.1786   0.0000   0.0000   0.0000   0.6446
  -2.000   0.4073   0.00993   0.00345  -0.1371  0.7340  0.2200  -0.9399   0.0000   0.0000   0.0000   0.5896
  -1.500   0.4639   0.00949   0.00342  -0.1378  0.7278  0.3566  -0.7869   0.0000   0.0000   0.0000   0.5485
  -1.000   0.5215   0.00915   0.00337  -0.1384  0.7224  0.4810  -0.8189   0.0000   0.0000   0.0000   0.5159
  -0.500   0.5767   0.00876   0.00344  -0.1385  0.7150  0.6357  -0.8532   0.0000   0.0000   0.0000   0.4896
   0.000   0.6303   0.00846   0.00351  -0.1379  0.7080  0.7747  -0.8913   0.0000   0.0000   0.0000   0.4675
   0.500   0.6840   0.00805   0.00344  -0.1367  0.7015  0.9668  -0.9335   0.0000   0.0000   0.0000   0.4478
   1.000   0.7458   0.00810   0.00340  -0.1381  0.6936  1.0001  -0.9820   0.0000   0.0000   0.0000   0.4325
   1.500   0.8027   0.00820   0.00343  -0.1385  0.6857  1.0001  -1.0328   0.0000   0.0000   0.0000   0.4192
   2.000   0.8596   0.00830   0.00347  -0.1389  0.6777  1.0001  -1.0868   0.0000   0.0000   0.0000   0.4076
   2.500   0.9165   0.00841   0.00352  -0.1393  0.6694  1.0001  -1.1446   0.0000   0.0000   0.0000   0.3973
   3.000   0.9727   0.00851   0.00358  -0.1395  0.6599  1.0001  -1.2064   0.0000   0.0000   0.0000   0.3881
   3.500   1.0283   0.00864   0.00369  -0.1396  0.6499  1.0001  -1.2716   0.0000   0.0000   0.0000   0.3798
   4.000   1.0831   0.00877   0.00383  -0.1396  0.6384  1.0001  -1.3378   0.0000   0.0000   0.0000   0.3723
   4.500   1.1372   0.00894   0.00402  -0.1395  0.6256  1.0001  -1.4114   0.0000   0.0000   0.0000   0.3654
   5.000   1.1904   0.00912   0.00423  -0.1392  0.6108  1.0001  -1.4853   0.0000   0.0000   0.0000   0.3590
   5.500   1.2425   0.00936   0.00447  -0.1388  0.5939  1.0001  -1.5752   0.0000   0.0000   0.0000   0.3531
   6.000   1.2929   0.00965   0.00477  -0.1380  0.5732  1.0001  -1.7284   0.0000   0.0000   0.0000   0.3474
   6.500   1.3390   0.01009   0.00515  -0.1364  0.5424  1.0001  -1.8842   0.0000   0.0000   0.0000   0.3418
   7.000   1.3786   0.01079   0.00571  -0.1338  0.4962  1.0001  -2.0556   0.0000   0.0000   0.0000   0.3362
   7.500   1.4116   0.01179   0.00652  -0.1300  0.4481  1.0001  -2.2791   0.0000   0.0000   0.0000   0.3305
   8.000   1.4376   0.01295   0.00751  -0.1251  0.4070  1.0001  -2.4915   0.0000   0.0000   0.0000   0.3247
   8.500   1.4575   0.01437   0.00878  -0.1195  0.3683  1.0001  -2.6934   0.0000   0.0000   0.0000   0.3188
   9.000   1.4775   0.01606   0.01034  -0.1146  0.3307  1.0001  -2.8995   0.0000   0.0000   0.0000   0.3136
   9.500   1.4967   0.01804   0.01222  -0.1102  0.2970  1.0001  -3.1072   0.0000   0.0000   0.0000   0.3088
  10.000   1.5142   0.02035   0.01442  -0.1061  0.2607  1.0001  -3.3206   0.0000   0.0000   0.0000   0.3043
  10.500   1.5281   0.02308   0.01701  -0.1020  0.2235  1.0001  -3.5332   0.0000   0.0000   0.0000   0.3001
  11.000   1.5385   0.02617   0.01995  -0.0979  0.1860  1.0001  -3.7380   0.0000   0.0000   0.0000   0.2960
  11.500   1.5453   0.02965   0.02326  -0.0937  0.1476  1.0001  -3.9324   0.0000   0.0000   0.0000   0.2920
  12.000   1.5484   0.03353   0.02698  -0.0896  0.1130  1.0001  -4.1156   0.0000   0.0000   0.0000   0.2883
  13.000   1.5600   0.04145   0.03479  -0.0829  0.0740  1.0001  -4.5109   0.0000   0.0000   0.0000   0.2815
  13.500   1.5679   0.04552   0.03890  -0.0802  0.0630  1.0001  -4.7294   0.0000   0.0000   0.0000   0.2785
  14.000   1.5745   0.04988   0.04331  -0.0778  0.0539  1.0001  -4.9541   0.0000   0.0000   0.0000   0.2757
  14.500   1.5790   0.05463   0.04813  -0.0757  0.0456  1.0001  -5.1757   0.0000   0.0000   0.0000   0.2731
  15.000   1.5822   0.05974   0.05333  -0.0739  0.0382  1.0001  -5.3947   0.0000   0.0000   0.0000   0.2708
  15.500   1.5794   0.06569   0.05937  -0.0723  0.0332  1.0001  -5.5951   0.0000   0.0000   0.0000   0.2687
  16.000   1.5766   0.07190   0.06573  -0.0712  0.0298  1.0001  -5.7943   0.0000   0.0000   0.0000   0.2669
  16.500   1.5712   0.07866   0.07265  -0.0705  0.0275  1.0001  -5.9824   0.0000   0.0000   0.0000   0.2654
  17.000   1.5643   0.08576   0.07991  -0.0702  0.0258  1.0001  -6.1766   0.0000   0.0000   0.0000   0.2642
  17.500   1.5539   0.09359   0.08792  -0.0704  0.0246  1.0001  -6.3480   0.0000   0.0000   0.0000   0.2635
  18.000   1.5472   0.10109   0.09562  -0.0711  0.0234  1.0001  -6.5524   0.0000   0.0000   0.0000   0.2629
  18.500   1.5370   0.10917   0.10385  -0.0724  0.0224  1.0001  -6.7325   0.0000   0.0000   0.0000   0.2627
  19.000   1.5246   0.11771   0.11254  -0.0741  0.0216  1.0001  -6.8867   0.0000   0.0000   0.0000   0.2630
  19.500   1.5191   0.12540   0.12045  -0.0761  0.0209  1.0001  -7.0820   0.0000   0.0000   0.0000   0.2632
  20.000   1.5136   0.13314   0.12836  -0.0785  0.0201  1.0001  -7.2751   0.0000   0.0000   0.0000   0.2636


