xflr5 v6.61

 Calculated polar for: QX0026 thickness=13.65

 1 1 Reynolds number fixed          Mach number fixed         

 xtrf =   1.000 (top)        1.000 (bottom)
 Mach =   0.000     Re =     0.375 e 6     Ncrit =   9.000

  alpha     CL        CD       CDp       Cm    Top Xtr Bot Xtr   Cpmin    Chinge    XCp    
 ------- -------- --------- --------- -------- ------- ------- -------- --------- ---------
 -10.000  -0.1728   0.09734   0.09414  -0.0775  0.8604  0.0378  -1.7789   0.0000   0.0000   0.0000  -0.2364
  -9.750  -0.1685   0.09400   0.09077  -0.0792  0.8562  0.0391  -1.7977   0.0000   0.0000   0.0000  -0.2583
  -9.000  -0.2853   0.04428   0.04064  -0.1251  0.8390  0.0313  -4.0310   0.0000   0.0000   0.0000  -0.2123
  -8.750  -0.2830   0.03917   0.03530  -0.1287  0.8340  0.0310  -4.1031   0.0000   0.0000   0.0000  -0.2281
  -8.500  -0.2809   0.03321   0.02882  -0.1316  0.8302  0.0306  -4.2418   0.0000   0.0000   0.0000  -0.2416
  -8.250  -0.2721   0.02812   0.02308  -0.1330  0.8257  0.0307  -4.3467   0.0000   0.0000   0.0000  -0.2623
  -8.000  -0.2550   0.02494   0.01925  -0.1334  0.8224  0.0312  -4.3436   0.0000   0.0000   0.0000  -0.2976
  -7.750  -0.2336   0.02284   0.01686  -0.1336  0.8191  0.0319  -4.2343   0.0000   0.0000   0.0000  -0.3477
  -7.500  -0.2081   0.02220   0.01623  -0.1337  0.8154  0.0328  -4.0275   0.0000   0.0000   0.0000  -0.4204
  -7.250  -0.1826   0.02133   0.01520  -0.1338  0.8126  0.0339  -3.8538   0.0000   0.0000   0.0000  -0.5132
  -7.000  -0.1575   0.02008   0.01364  -0.1338  0.8094  0.0351  -3.7207   0.0000   0.0000   0.0000  -0.6334
  -6.750  -0.1318   0.01898   0.01221  -0.1337  0.8059  0.0360  -3.5902   0.0000   0.0000   0.0000  -0.8038
  -6.500  -0.1057   0.01799   0.01121  -0.1338  0.8032  0.0371  -3.4314   0.0000   0.0000   0.0000  -1.0625
  -6.250  -0.0788   0.01741   0.01056  -0.1339  0.8001  0.0384  -3.2694   0.0000   0.0000   0.0000  -1.5082
  -6.000  -0.0516   0.01688   0.00986  -0.1339  0.7968  0.0402  -3.1186   0.0000   0.0000   0.0000  -2.4305
  -5.750  -0.0248   0.01613   0.00907  -0.1339  0.7940  0.0418  -2.9636   0.0000   0.0000   0.0000  -5.3316
  -5.500   0.0027   0.01567   0.00855  -0.1340  0.7913  0.0436  -2.8019   0.0000   0.0000   0.0000  51.6193
  -5.250   0.0302   0.01525   0.00802  -0.1340  0.7878  0.0456  -2.6523   0.0000   0.0000   0.0000   4.8196
  -5.000   0.0572   0.01467   0.00747  -0.1340  0.7849  0.0478  -2.4944   0.0000   0.0000   0.0000   2.6555
  -4.750   0.0856   0.01437   0.00706  -0.1341  0.7826  0.0508  -2.3499   0.0000   0.0000   0.0000   1.8579
  -4.500   0.1123   0.01391   0.00666  -0.1341  0.7789  0.0536  -2.2125   0.0000   0.0000   0.0000   1.4735
  -4.250   0.1403   0.01359   0.00628  -0.1342  0.7758  0.0571  -2.0772   0.0000   0.0000   0.0000   1.2285
  -4.000   0.1683   0.01324   0.00594  -0.1343  0.7734  0.0615  -1.9359   0.0000   0.0000   0.0000   1.0650
  -3.750   0.1958   0.01294   0.00567  -0.1344  0.7700  0.0666  -1.8005   0.0000   0.0000   0.0000   0.9502
  -3.500   0.2237   0.01265   0.00539  -0.1345  0.7667  0.0729  -1.6698   0.0000   0.0000   0.0000   0.8624
  -3.250   0.2522   0.01240   0.00511  -0.1347  0.7640  0.0818  -1.5478   0.0000   0.0000   0.0000   0.7930
  -3.000   0.2801   0.01213   0.00491  -0.1348  0.7608  0.0940  -1.4285   0.0000   0.0000   0.0000   0.7388
  -2.750   0.3079   0.01185   0.00473  -0.1350  0.7573  0.1149  -1.3108   0.0000   0.0000   0.0000   0.6944
  -2.500   0.3362   0.01153   0.00455  -0.1352  0.7545  0.1543  -1.1926   0.0000   0.0000   0.0000   0.6570
  -2.250   0.3643   0.01129   0.00447  -0.1354  0.7515  0.2067  -1.0840   0.0000   0.0000   0.0000   0.6257
  -2.000   0.3920   0.01110   0.00444  -0.1356  0.7477  0.2560  -0.9779   0.0000   0.0000   0.0000   0.5990
  -1.750   0.4205   0.01092   0.00437  -0.1358  0.7447  0.3040  -0.8721   0.0000   0.0000   0.0000   0.5754
  -1.500   0.4488   0.01074   0.00433  -0.1360  0.7418  0.3559  -0.7812   0.0000   0.0000   0.0000   0.5548
  -1.250   0.4762   0.01057   0.00435  -0.1361  0.7378  0.4159  -0.7985   0.0000   0.0000   0.0000   0.5370
  -1.000   0.5042   0.01034   0.00433  -0.1362  0.7346  0.4902  -0.8168   0.0000   0.0000   0.0000   0.5208
  -0.750   0.5316   0.01011   0.00434  -0.1362  0.7316  0.5785  -0.8353   0.0000   0.0000   0.0000   0.5063
  -0.500   0.5572   0.00990   0.00445  -0.1357  0.7275  0.6755  -0.8531   0.0000   0.0000   0.0000   0.4932
  -0.250   0.5827   0.00968   0.00446  -0.1350  0.7242  0.7617  -0.8716   0.0000   0.0000   0.0000   0.4809
   0.000   0.6053   0.00948   0.00449  -0.1334  0.7209  0.8466  -0.8891   0.0000   0.0000   0.0000   0.4693
   0.250   0.6356   0.00930   0.00446  -0.1334  0.7168  0.9567  -0.9111   0.0000   0.0000   0.0000   0.4583
   0.500   0.6737   0.00928   0.00435  -0.1356  0.7135  1.0001  -0.9378   0.0000   0.0000   0.0000   0.4493
   0.750   0.7015   0.00935   0.00436  -0.1357  0.7095  1.0001  -0.9593   0.0000   0.0000   0.0000   0.4411
   1.000   0.7294   0.00940   0.00436  -0.1357  0.7053  1.0001  -0.9814   0.0000   0.0000   0.0000   0.4334
   1.250   0.7587   0.00944   0.00431  -0.1360  0.7020  1.0001  -1.0052   0.0000   0.0000   0.0000   0.4263
   1.500   0.7855   0.00951   0.00438  -0.1359  0.6970  1.0001  -1.0279   0.0000   0.0000   0.0000   0.4197
   1.750   0.8141   0.00955   0.00436  -0.1361  0.6931  1.0001  -1.0526   0.0000   0.0000   0.0000   0.4135
   2.000   0.8419   0.00962   0.00440  -0.1361  0.6886  1.0001  -1.0774   0.0000   0.0000   0.0000   0.4077
   2.250   0.8697   0.00966   0.00442  -0.1361  0.6838  1.0001  -1.1030   0.0000   0.0000   0.0000   0.4022
   2.500   0.8982   0.00971   0.00442  -0.1363  0.6796  1.0001  -1.1301   0.0000   0.0000   0.0000   0.3971
   2.750   0.9251   0.00977   0.00449  -0.1362  0.6740  1.0001  -1.1569   0.0000   0.0000   0.0000   0.3922
   3.000   0.9538   0.00982   0.00448  -0.1363  0.6696  1.0001  -1.1861   0.0000   0.0000   0.0000   0.3876
   3.250   0.9803   0.00988   0.00456  -0.1361  0.6635  1.0001  -1.2148   0.0000   0.0000   0.0000   0.3833
   3.500   1.0083   0.00993   0.00458  -0.1362  0.6584  1.0001  -1.2461   0.0000   0.0000   0.0000   0.3791
   3.750   1.0350   0.00999   0.00465  -0.1360  0.6520  1.0001  -1.2776   0.0000   0.0000   0.0000   0.3751
   4.000   1.0620   0.01006   0.00471  -0.1359  0.6458  1.0001  -1.3110   0.0000   0.0000   0.0000   0.3714
   4.250   1.0893   0.01011   0.00475  -0.1358  0.6395  1.0001  -1.3463   0.0000   0.0000   0.0000   0.3678
   4.500   1.1152   0.01019   0.00486  -0.1355  0.6319  1.0001  -1.3825   0.0000   0.0000   0.0000   0.3643
   4.750   1.1417   0.01027   0.00493  -0.1352  0.6246  1.0001  -1.4212   0.0000   0.0000   0.0000   0.3609
   5.250   1.1935   0.01046   0.00512  -0.1346  0.6080  1.0001  -1.5060   0.0000   0.0000   0.0000   0.3545
   5.500   1.2186   0.01058   0.00525  -0.1342  0.5986  1.0001  -1.5536   0.0000   0.0000   0.0000   0.3515
   5.750   1.2435   0.01071   0.00539  -0.1337  0.5886  1.0001  -1.6090   0.0000   0.0000   0.0000   0.3486
   6.000   1.2680   0.01086   0.00554  -0.1331  0.5778  1.0001  -1.6799   0.0000   0.0000   0.0000   0.3457
   6.250   1.2919   0.01103   0.00571  -0.1325  0.5661  1.0001  -1.7590   0.0000   0.0000   0.0000   0.3429
   6.500   1.3151   0.01124   0.00590  -0.1317  0.5536  1.0001  -1.8423   0.0000   0.0000   0.0000   0.3401
   6.750   1.3374   0.01147   0.00612  -0.1308  0.5396  1.0001  -1.9292   0.0000   0.0000   0.0000   0.3374
   7.000   1.3586   0.01174   0.00637  -0.1297  0.5239  1.0001  -2.0206   0.0000   0.0000   0.0000   0.3347
   7.250   1.3783   0.01208   0.00666  -0.1283  0.5073  1.0001  -2.1172   0.0000   0.0000   0.0000   0.3320
   7.500   1.3967   0.01247   0.00700  -0.1267  0.4891  1.0001  -2.2184   0.0000   0.0000   0.0000   0.3292
   7.750   1.4138   0.01290   0.00738  -0.1250  0.4707  1.0001  -2.3203   0.0000   0.0000   0.0000   0.3265
   8.000   1.4292   0.01340   0.00781  -0.1230  0.4529  1.0001  -2.4255   0.0000   0.0000   0.0000   0.3238
   8.250   1.4424   0.01391   0.00829  -0.1206  0.4353  1.0001  -2.5270   0.0000   0.0000   0.0000   0.3209
   8.500   1.4541   0.01449   0.00882  -0.1180  0.4180  1.0001  -2.6262   0.0000   0.0000   0.0000   0.3180
   8.750   1.4647   0.01517   0.00945  -0.1154  0.4006  1.0001  -2.7282   0.0000   0.0000   0.0000   0.3153
   9.000   1.4754   0.01590   0.01014  -0.1129  0.3825  1.0001  -2.8331   0.0000   0.0000   0.0000   0.3126
   9.250   1.4847   0.01676   0.01096  -0.1104  0.3645  1.0001  -2.9354   0.0000   0.0000   0.0000   0.3100
   9.500   1.4928   0.01774   0.01188  -0.1079  0.3460  1.0001  -3.0352   0.0000   0.0000   0.0000   0.3075
   9.750   1.5004   0.01884   0.01292  -0.1055  0.3269  1.0001  -3.1340   0.0000   0.0000   0.0000   0.3051
  10.000   1.5074   0.02004   0.01406  -0.1032  0.3072  1.0001  -3.2370   0.0000   0.0000   0.0000   0.3028
  10.250   1.5134   0.02136   0.01532  -0.1009  0.2875  1.0001  -3.3393   0.0000   0.0000   0.0000   0.3006
  10.500   1.5186   0.02280   0.01669  -0.0987  0.2676  1.0001  -3.4397   0.0000   0.0000   0.0000   0.2984
  10.750   1.5229   0.02435   0.01817  -0.0965  0.2478  1.0001  -3.5376   0.0000   0.0000   0.0000   0.2963
  11.000   1.5266   0.02600   0.01974  -0.0943  0.2282  1.0001  -3.6344   0.0000   0.0000   0.0000   0.2943
  11.250   1.5299   0.02772   0.02139  -0.0922  0.2087  1.0001  -3.7300   0.0000   0.0000   0.0000   0.2923
  11.500   1.5322   0.02954   0.02314  -0.0901  0.1896  1.0001  -3.8237   0.0000   0.0000   0.0000   0.2903
  11.750   1.5340   0.03145   0.02498  -0.0881  0.1712  1.0001  -3.9213   0.0000   0.0000   0.0000   0.2884
  12.000   1.5348   0.03346   0.02692  -0.0860  0.1538  1.0001  -4.0161   0.0000   0.0000   0.0000   0.2866
  12.250   1.5352   0.03557   0.02896  -0.0841  0.1373  1.0001  -4.1093   0.0000   0.0000   0.0000   0.2848
  12.500   1.5355   0.03775   0.03108  -0.0823  0.1222  1.0001  -4.2021   0.0000   0.0000   0.0000   0.2831
  12.750   1.5357   0.04000   0.03328  -0.0805  0.1085  1.0001  -4.2944   0.0000   0.0000   0.0000   0.2814
  13.000   1.5360   0.04231   0.03555  -0.0789  0.0966  1.0001  -4.3871   0.0000   0.0000   0.0000   0.2799
  13.250   1.5360   0.04473   0.03794  -0.0774  0.0867  1.0001  -4.4782   0.0000   0.0000   0.0000   0.2784
  13.500   1.5364   0.04717   0.04038  -0.0760  0.0783  1.0001  -4.5716   0.0000   0.0000   0.0000   0.2769
  13.750   1.5362   0.04970   0.04291  -0.0747  0.0716  1.0001  -4.6688   0.0000   0.0000   0.0000   0.2756
  14.000   1.5362   0.05229   0.04552  -0.0735  0.0660  1.0001  -4.7665   0.0000   0.0000   0.0000   0.2743
  14.250   1.5365   0.05493   0.04819  -0.0725  0.0613  1.0001  -4.8647   0.0000   0.0000   0.0000   0.2730
  14.500   1.5362   0.05769   0.05099  -0.0715  0.0573  1.0001  -4.9607   0.0000   0.0000   0.0000   0.2719
  14.750   1.5340   0.06071   0.05403  -0.0706  0.0541  1.0001  -5.0482   0.0000   0.0000   0.0000   0.2708
  15.000   1.5347   0.06344   0.05683  -0.0699  0.0508  1.0001  -5.1483   0.0000   0.0000   0.0000   0.2698
  15.250   1.5328   0.06653   0.05998  -0.0692  0.0482  1.0001  -5.2360   0.0000   0.0000   0.0000   0.2688
  15.500   1.5318   0.06958   0.06309  -0.0687  0.0458  1.0001  -5.3284   0.0000   0.0000   0.0000   0.2679
  15.750   1.5292   0.07289   0.06646  -0.0682  0.0437  1.0001  -5.4128   0.0000   0.0000   0.0000   0.2671
  16.000   1.5284   0.07602   0.06968  -0.0679  0.0418  1.0001  -5.5124   0.0000   0.0000   0.0000   0.2664
  16.250   1.5220   0.07984   0.07352  -0.0676  0.0404  1.0001  -5.5836   0.0000   0.0000   0.0000   0.2658
  16.500   1.5223   0.08291   0.07671  -0.0674  0.0386  1.0001  -5.6858   0.0000   0.0000   0.0000   0.2651
  16.750   1.5202   0.08632   0.08019  -0.0674  0.0372  1.0001  -5.7785   0.0000   0.0000   0.0000   0.2645
  17.000   1.5134   0.09033   0.08421  -0.0674  0.0361  1.0001  -5.8453   0.0000   0.0000   0.0000   0.2641
  17.250   1.5138   0.09353   0.08755  -0.0676  0.0347  1.0001  -5.9462   0.0000   0.0000   0.0000   0.2636
  17.500   1.5120   0.09701   0.09111  -0.0678  0.0335  1.0001  -6.0384   0.0000   0.0000   0.0000   0.2633
  17.750   1.5082   0.10073   0.09488  -0.0682  0.0325  1.0001  -6.1196   0.0000   0.0000   0.0000   0.2630
  18.000   1.5048   0.10437   0.09859  -0.0685  0.0316  1.0001  -6.1985   0.0000   0.0000   0.0000   0.2627
  18.250   1.5038   0.10781   0.10215  -0.0689  0.0306  1.0001  -6.2888   0.0000   0.0000   0.0000   0.2624
  18.500   1.5023   0.11132   0.10573  -0.0695  0.0297  1.0001  -6.3782   0.0000   0.0000   0.0000   0.2622
  18.750   1.5006   0.11484   0.10930  -0.0702  0.0289  1.0001  -6.4695   0.0000   0.0000   0.0000   0.2621
  19.000   1.4990   0.11813   0.11258  -0.0706  0.0282  1.0001  -6.5666   0.0000   0.0000   0.0000   0.2618
  19.250   1.4979   0.12173   0.11634  -0.0715  0.0274  1.0001  -6.6603   0.0000   0.0000   0.0000   0.2618
  19.500   1.4971   0.12526   0.11998  -0.0725  0.0266  1.0001  -6.7573   0.0000   0.0000   0.0000   0.2618
  19.750   1.4965   0.12869   0.12348  -0.0735  0.0259  1.0001  -6.8584   0.0000   0.0000   0.0000   0.2619
  20.000   1.4965   0.13194   0.12676  -0.0744  0.0252  1.0001  -6.9657   0.0000   0.0000   0.0000   0.2618


