xflr5 v6.61

 Calculated polar for: QX0026 thickness=13.65

 1 1 Reynolds number fixed          Mach number fixed         

 xtrf =   1.000 (top)        1.000 (bottom)
 Mach =   0.000     Re =     0.800 e 6     Ncrit =   9.000

  alpha     CL        CD       CDp       Cm    Top Xtr Bot Xtr   Cpmin    Chinge    XCp    
 ------- -------- --------- --------- -------- ------- ------- -------- --------- ---------
 -10.000  -0.4845   0.02075   0.01590  -0.1292  0.8025  0.0190  -6.6879   0.0000   0.0000   0.0000  -0.0351
  -9.750  -0.4606   0.01980   0.01478  -0.1293  0.7991  0.0194  -6.4812   0.0000   0.0000   0.0000  -0.0495
  -9.500  -0.4351   0.01918   0.01399  -0.1294  0.7956  0.0197  -6.2547   0.0000   0.0000   0.0000  -0.0665
  -9.250  -0.4132   0.01767   0.01231  -0.1295  0.7927  0.0204  -6.0768   0.0000   0.0000   0.0000  -0.0827
  -9.000  -0.3872   0.01710   0.01171  -0.1297  0.7894  0.0208  -5.8354   0.0000   0.0000   0.0000  -0.1045
  -8.750  -0.3609   0.01657   0.01112  -0.1298  0.7863  0.0213  -5.6013   0.0000   0.0000   0.0000  -0.1299
  -8.500  -0.3345   0.01603   0.01045  -0.1299  0.7835  0.0219  -5.3769   0.0000   0.0000   0.0000  -0.1592
  -8.250  -0.3078   0.01547   0.00980  -0.1300  0.7805  0.0225  -5.1579   0.0000   0.0000   0.0000  -0.1939
  -8.000  -0.2808   0.01499   0.00921  -0.1301  0.7774  0.0230  -4.9397   0.0000   0.0000   0.0000  -0.2360
  -7.750  -0.2545   0.01429   0.00839  -0.1301  0.7747  0.0236  -4.7363   0.0000   0.0000   0.0000  -0.2853
  -7.500  -0.2279   0.01370   0.00776  -0.1302  0.7721  0.0244  -4.5213   0.0000   0.0000   0.0000  -0.3471
  -7.250  -0.2003   0.01335   0.00739  -0.1304  0.7690  0.0251  -4.2974   0.0000   0.0000   0.0000  -0.4289
  -7.000  -0.1724   0.01304   0.00702  -0.1305  0.7661  0.0261  -4.0932   0.0000   0.0000   0.0000  -0.5379
  -6.750  -0.1443   0.01277   0.00665  -0.1306  0.7637  0.0270  -3.8981   0.0000   0.0000   0.0000  -0.6903
  -6.500  -0.1173   0.01220   0.00604  -0.1307  0.7609  0.0280  -3.7194   0.0000   0.0000   0.0000  -0.9059
  -6.250  -0.0894   0.01188   0.00570  -0.1309  0.7579  0.0290  -3.5255   0.0000   0.0000   0.0000  -1.2663
  -6.000  -0.0612   0.01161   0.00539  -0.1311  0.7552  0.0302  -3.3365   0.0000   0.0000   0.0000  -1.9644
  -5.750  -0.0327   0.01141   0.00510  -0.1312  0.7529  0.0313  -3.1515   0.0000   0.0000   0.0000  -3.8900
  -5.500  -0.0050   0.01099   0.00469  -0.1314  0.7499  0.0329  -2.9732   0.0000   0.0000   0.0000  -26.9805
  -5.250   0.0235   0.01078   0.00447  -0.1316  0.7470  0.0346  -2.7896   0.0000   0.0000   0.0000   6.0004
  -5.000   0.0520   0.01055   0.00418  -0.1317  0.7445  0.0362  -2.6208   0.0000   0.0000   0.0000   2.8503
  -4.750   0.0804   0.01030   0.00391  -0.1319  0.7420  0.0383  -2.4616   0.0000   0.0000   0.0000   1.9329
  -4.500   0.1091   0.01013   0.00372  -0.1321  0.7389  0.0405  -2.3046   0.0000   0.0000   0.0000   1.4900
  -4.250   0.1375   0.00987   0.00347  -0.1323  0.7360  0.0435  -2.1506   0.0000   0.0000   0.0000   1.2335
  -4.000   0.1662   0.00970   0.00326  -0.1325  0.7335  0.0467  -1.9992   0.0000   0.0000   0.0000   1.0635
  -3.750   0.1949   0.00953   0.00310  -0.1327  0.7305  0.0505  -1.8498   0.0000   0.0000   0.0000   0.9438
  -3.500   0.2236   0.00934   0.00292  -0.1329  0.7273  0.0552  -1.7089   0.0000   0.0000   0.0000   0.8549
  -3.250   0.2523   0.00918   0.00276  -0.1331  0.7245  0.0615  -1.5774   0.0000   0.0000   0.0000   0.7860
  -3.000   0.2812   0.00903   0.00261  -0.1334  0.7218  0.0698  -1.4486   0.0000   0.0000   0.0000   0.7312
  -2.500   0.3385   0.00866   0.00238  -0.1338  0.7154  0.1041  -1.1986   0.0000   0.0000   0.0000   0.6499
  -2.250   0.3671   0.00848   0.00228  -0.1341  0.7126  0.1347  -1.0857   0.0000   0.0000   0.0000   0.6188
  -2.000   0.3957   0.00829   0.00223  -0.1344  0.7094  0.1726  -0.9765   0.0000   0.0000   0.0000   0.5923
  -1.750   0.4243   0.00813   0.00218  -0.1346  0.7060  0.2112  -0.8695   0.0000   0.0000   0.0000   0.5693
  -1.500   0.4530   0.00800   0.00213  -0.1349  0.7031  0.2489  -0.7892   0.0000   0.0000   0.0000   0.5491
  -1.250   0.4817   0.00787   0.00211  -0.1352  0.6999  0.2872  -0.8072   0.0000   0.0000   0.0000   0.5314
  -0.750   0.5389   0.00760   0.00208  -0.1357  0.6931  0.3783  -0.8445   0.0000   0.0000   0.0000   0.5016
  -0.500   0.5674   0.00745   0.00208  -0.1359  0.6899  0.4361  -0.8638   0.0000   0.0000   0.0000   0.4889
  -0.250   0.5957   0.00727   0.00211  -0.1361  0.6860  0.5073  -0.8835   0.0000   0.0000   0.0000   0.4775
   0.000   0.6238   0.00708   0.00213  -0.1363  0.6826  0.5910  -0.9036   0.0000   0.0000   0.0000   0.4671
   0.250   0.6513   0.00691   0.00219  -0.1363  0.6791  0.6803  -0.9241   0.0000   0.0000   0.0000   0.4574
   0.500   0.6787   0.00677   0.00224  -0.1362  0.6750  0.7453  -0.9449   0.0000   0.0000   0.0000   0.4484
   0.750   0.7051   0.00664   0.00227  -0.1357  0.6714  0.8123  -0.9659   0.0000   0.0000   0.0000   0.4400
   1.000   0.7275   0.00645   0.00233  -0.1343  0.6674  0.9031  -0.9851   0.0000   0.0000   0.0000   0.4317
   1.250   0.7643   0.00635   0.00229  -0.1360  0.6631  1.0001  -1.0131   0.0000   0.0000   0.0000   0.4248
   1.500   0.7927   0.00642   0.00230  -0.1362  0.6592  1.0001  -1.0369   0.0000   0.0000   0.0000   0.4183
   1.750   0.8209   0.00646   0.00233  -0.1363  0.6543  1.0001  -1.0613   0.0000   0.0000   0.0000   0.4122
   2.000   0.8491   0.00652   0.00235  -0.1364  0.6499  1.0001  -1.0864   0.0000   0.0000   0.0000   0.4065
   2.250   0.8773   0.00657   0.00240  -0.1366  0.6447  1.0001  -1.1123   0.0000   0.0000   0.0000   0.4012
   2.500   0.9053   0.00664   0.00243  -0.1367  0.6397  1.0001  -1.1390   0.0000   0.0000   0.0000   0.3962
   2.750   0.9334   0.00670   0.00249  -0.1368  0.6341  1.0001  -1.1666   0.0000   0.0000   0.0000   0.3914
   3.000   0.9611   0.00679   0.00253  -0.1368  0.6286  1.0001  -1.1952   0.0000   0.0000   0.0000   0.3869
   3.250   0.9890   0.00685   0.00260  -0.1369  0.6222  1.0001  -1.2250   0.0000   0.0000   0.0000   0.3827
   3.500   1.0165   0.00695   0.00266  -0.1369  0.6160  1.0001  -1.2559   0.0000   0.0000   0.0000   0.3786
   3.750   1.0440   0.00703   0.00274  -0.1369  0.6088  1.0001  -1.2881   0.0000   0.0000   0.0000   0.3748
   4.000   1.0713   0.00713   0.00282  -0.1369  0.6013  1.0001  -1.3219   0.0000   0.0000   0.0000   0.3711
   4.250   1.0983   0.00724   0.00291  -0.1368  0.5935  1.0001  -1.3571   0.0000   0.0000   0.0000   0.3676
   4.750   1.1515   0.00749   0.00313  -0.1365  0.5752  1.0001  -1.4334   0.0000   0.0000   0.0000   0.3609
   5.000   1.1777   0.00764   0.00325  -0.1363  0.5647  1.0001  -1.4749   0.0000   0.0000   0.0000   0.3578
   5.250   1.2034   0.00781   0.00339  -0.1360  0.5532  1.0001  -1.5192   0.0000   0.0000   0.0000   0.3547
   5.500   1.2287   0.00800   0.00355  -0.1357  0.5405  1.0001  -1.5679   0.0000   0.0000   0.0000   0.3518
   5.750   1.2535   0.00821   0.00372  -0.1352  0.5260  1.0001  -1.6258   0.0000   0.0000   0.0000   0.3489
   6.000   1.2772   0.00847   0.00393  -0.1346  0.5103  1.0001  -1.6992   0.0000   0.0000   0.0000   0.3460
   6.250   1.3004   0.00876   0.00416  -0.1339  0.4933  1.0001  -1.7786   0.0000   0.0000   0.0000   0.3433
   6.500   1.3222   0.00911   0.00443  -0.1330  0.4751  1.0001  -1.8610   0.0000   0.0000   0.0000   0.3405
   6.750   1.3434   0.00948   0.00473  -0.1319  0.4553  1.0001  -1.9472   0.0000   0.0000   0.0000   0.3378
   7.000   1.3640   0.00988   0.00504  -0.1308  0.4355  1.0001  -2.0386   0.0000   0.0000   0.0000   0.3351
   7.250   1.3839   0.01029   0.00538  -0.1296  0.4167  1.0001  -2.1368   0.0000   0.0000   0.0000   0.3325
   7.500   1.4029   0.01073   0.00575  -0.1282  0.3984  1.0001  -2.2414   0.0000   0.0000   0.0000   0.3298
   7.750   1.4210   0.01119   0.00614  -0.1267  0.3799  1.0001  -2.3483   0.0000   0.0000   0.0000   0.3272
   8.000   1.4367   0.01166   0.00654  -0.1248  0.3617  1.0001  -2.4552   0.0000   0.0000   0.0000   0.3245
   8.250   1.4508   0.01220   0.00702  -0.1226  0.3432  1.0001  -2.5594   0.0000   0.0000   0.0000   0.3218
   8.500   1.4639   0.01282   0.00756  -0.1203  0.3240  1.0001  -2.6651   0.0000   0.0000   0.0000   0.3191
   8.750   1.4762   0.01352   0.00817  -0.1180  0.3042  1.0001  -2.7738   0.0000   0.0000   0.0000   0.3165
   9.000   1.4875   0.01431   0.00888  -0.1158  0.2840  1.0001  -2.8813   0.0000   0.0000   0.0000   0.3139
   9.250   1.4980   0.01519   0.00967  -0.1135  0.2635  1.0001  -2.9877   0.0000   0.0000   0.0000   0.3114
   9.500   1.5078   0.01617   0.01056  -0.1113  0.2433  1.0001  -3.0930   0.0000   0.0000   0.0000   0.3090
   9.750   1.5169   0.01724   0.01154  -0.1091  0.2234  1.0001  -3.2010   0.0000   0.0000   0.0000   0.3067
  10.000   1.5252   0.01841   0.01261  -0.1069  0.2039  1.0001  -3.3107   0.0000   0.0000   0.0000   0.3045
  10.250   1.5327   0.01967   0.01379  -0.1048  0.1851  1.0001  -3.4189   0.0000   0.0000   0.0000   0.3023
  10.500   1.5399   0.02100   0.01503  -0.1027  0.1670  1.0001  -3.5269   0.0000   0.0000   0.0000   0.3002
  10.750   1.5469   0.02237   0.01632  -0.1007  0.1501  1.0001  -3.6354   0.0000   0.0000   0.0000   0.2981
  11.000   1.5532   0.02382   0.01770  -0.0987  0.1341  1.0001  -3.7422   0.0000   0.0000   0.0000   0.2961
  11.250   1.5589   0.02534   0.01915  -0.0967  0.1191  1.0001  -3.8494   0.0000   0.0000   0.0000   0.2941
  11.500   1.5642   0.02691   0.02066  -0.0948  0.1055  1.0001  -3.9617   0.0000   0.0000   0.0000   0.2922
  11.750   1.5693   0.02852   0.02222  -0.0929  0.0936  1.0001  -4.0741   0.0000   0.0000   0.0000   0.2903
  12.000   1.5748   0.03013   0.02379  -0.0911  0.0833  1.0001  -4.1891   0.0000   0.0000   0.0000   0.2884
  12.250   1.5802   0.03177   0.02541  -0.0894  0.0747  1.0001  -4.3044   0.0000   0.0000   0.0000   0.2867
  12.500   1.5856   0.03344   0.02706  -0.0877  0.0671  1.0001  -4.4203   0.0000   0.0000   0.0000   0.2849
  12.750   1.5907   0.03518   0.02879  -0.0861  0.0606  1.0001  -4.5361   0.0000   0.0000   0.0000   0.2832
  13.000   1.5959   0.03695   0.03057  -0.0847  0.0551  1.0001  -4.6540   0.0000   0.0000   0.0000   0.2816
  13.250   1.6014   0.03874   0.03237  -0.0833  0.0504  1.0001  -4.7811   0.0000   0.0000   0.0000   0.2801
  13.500   1.6070   0.04055   0.03421  -0.0820  0.0466  1.0001  -4.9094   0.0000   0.0000   0.0000   0.2785
  13.750   1.6122   0.04246   0.03614  -0.0807  0.0433  1.0001  -5.0365   0.0000   0.0000   0.0000   0.2771
  14.250   1.6219   0.04644   0.04018  -0.0784  0.0378  1.0001  -5.2913   0.0000   0.0000   0.0000   0.2743
  14.500   1.6253   0.04862   0.04240  -0.0773  0.0356  1.0001  -5.4129   0.0000   0.0000   0.0000   0.2729
  14.750   1.6299   0.05070   0.04453  -0.0763  0.0334  1.0001  -5.5414   0.0000   0.0000   0.0000   0.2717
  15.000   1.6321   0.05310   0.04696  -0.0753  0.0317  1.0001  -5.6611   0.0000   0.0000   0.0000   0.2704
  15.250   1.6366   0.05529   0.04922  -0.0745  0.0301  1.0001  -5.7991   0.0000   0.0000   0.0000   0.2692
  15.500   1.6375   0.05791   0.05188  -0.0736  0.0287  1.0001  -5.9196   0.0000   0.0000   0.0000   0.2681
  15.750   1.6400   0.06040   0.05444  -0.0729  0.0275  1.0001  -6.0480   0.0000   0.0000   0.0000   0.2670
  16.000   1.6424   0.06292   0.05703  -0.0723  0.0263  1.0001  -6.1770   0.0000   0.0000   0.0000   0.2660
  16.250   1.6417   0.06582   0.05997  -0.0716  0.0253  1.0001  -6.2910   0.0000   0.0000   0.0000   0.2650
  16.500   1.6405   0.06885   0.06308  -0.0710  0.0243  1.0001  -6.4007   0.0000   0.0000   0.0000   0.2641
  16.750   1.6426   0.07154   0.06586  -0.0707  0.0234  1.0001  -6.5292   0.0000   0.0000   0.0000   0.2632
  17.000   1.6425   0.07452   0.06890  -0.0703  0.0226  1.0001  -6.6472   0.0000   0.0000   0.0000   0.2624
  17.250   1.6394   0.07793   0.07237  -0.0701  0.0219  1.0001  -6.7477   0.0000   0.0000   0.0000   0.2617
  17.500   1.6336   0.08170   0.07622  -0.0699  0.0212  1.0001  -6.8306   0.0000   0.0000   0.0000   0.2611
  17.750   1.6334   0.08479   0.07941  -0.0698  0.0207  1.0001  -6.9462   0.0000   0.0000   0.0000   0.2605
  18.000   1.6316   0.08815   0.08286  -0.0699  0.0201  1.0001  -7.0593   0.0000   0.0000   0.0000   0.2599
  18.250   1.6287   0.09171   0.08650  -0.0700  0.0196  1.0001  -7.1668   0.0000   0.0000   0.0000   0.2595
  18.500   1.6238   0.09557   0.09044  -0.0703  0.0191  1.0001  -7.2616   0.0000   0.0000   0.0000   0.2591
  18.750   1.6161   0.09988   0.09482  -0.0708  0.0186  1.0001  -7.3359   0.0000   0.0000   0.0000   0.2590
  19.000   1.6050   0.10470   0.09973  -0.0715  0.0182  1.0001  -7.3842   0.0000   0.0000   0.0000   0.2591
  19.250   1.6028   0.10828   0.10341  -0.0721  0.0179  1.0001  -7.4918   0.0000   0.0000   0.0000   0.2589
  19.500   1.5990   0.11212   0.10735  -0.0728  0.0175  1.0001  -7.5884   0.0000   0.0000   0.0000   0.2588
  19.750   1.5946   0.11612   0.11145  -0.0737  0.0171  1.0001  -7.6791   0.0000   0.0000   0.0000   0.2588
  20.000   1.5897   0.12021   0.11562  -0.0747  0.0167  1.0001  -7.7660   0.0000   0.0000   0.0000   0.2589


