xflr5 v6.61

 Calculated polar for: QX0026 thickness=13.65

 1 1 Reynolds number fixed          Mach number fixed         

 xtrf =   1.000 (top)        1.000 (bottom)
 Mach =   0.000     Re =     0.420 e 6     Ncrit =   9.000

  alpha     CL        CD       CDp       Cm    Top Xtr Bot Xtr   Cpmin    Chinge    XCp    
 ------- -------- --------- --------- -------- ------- ------- -------- --------- ---------
  -9.750  -0.1840   0.09087   0.08774  -0.0807  0.8467  0.0365  -2.0120   0.0000   0.0000   0.0000  -0.2237
  -9.500  -0.1740   0.08867   0.08553  -0.0813  0.8423  0.0370  -1.9370   0.0000   0.0000   0.0000  -0.2532
  -9.250  -0.1665   0.08596   0.08279  -0.0825  0.8387  0.0377  -1.9029   0.0000   0.0000   0.0000  -0.2817
  -9.000  -0.1624   0.08238   0.07920  -0.0848  0.8341  0.0391  -1.9253   0.0000   0.0000   0.0000  -0.3088
  -8.500  -0.3042   0.02635   0.02127  -0.1324  0.8216  0.0282  -4.6863   0.0000   0.0000   0.0000  -0.2073
  -8.250  -0.2815   0.02503   0.01980  -0.1326  0.8180  0.0287  -4.5277   0.0000   0.0000   0.0000  -0.2441
  -8.000  -0.2594   0.02332   0.01781  -0.1328  0.8145  0.0294  -4.4050   0.0000   0.0000   0.0000  -0.2861
  -7.750  -0.2363   0.02163   0.01576  -0.1329  0.8117  0.0302  -4.2886   0.0000   0.0000   0.0000  -0.3379
  -7.500  -0.2118   0.02040   0.01416  -0.1329  0.8080  0.0312  -4.1570   0.0000   0.0000   0.0000  -0.4049
  -7.250  -0.1870   0.01915   0.01281  -0.1330  0.8049  0.0322  -3.9875   0.0000   0.0000   0.0000  -0.4910
  -7.000  -0.1604   0.01854   0.01211  -0.1331  0.8023  0.0332  -3.7923   0.0000   0.0000   0.0000  -0.6131
  -6.750  -0.1341   0.01778   0.01124  -0.1332  0.7988  0.0343  -3.6266   0.0000   0.0000   0.0000  -0.7814
  -6.500  -0.1072   0.01705   0.01030  -0.1331  0.7956  0.0354  -3.4841   0.0000   0.0000   0.0000  -1.0374
  -6.250  -0.0806   0.01619   0.00933  -0.1332  0.7931  0.0366  -3.3337   0.0000   0.0000   0.0000  -1.4609
  -6.000  -0.0534   0.01575   0.00889  -0.1333  0.7900  0.0381  -3.1578   0.0000   0.0000   0.0000  -2.3276
  -5.750  -0.0259   0.01533   0.00837  -0.1333  0.7867  0.0400  -2.9954   0.0000   0.0000   0.0000  -5.0636
  -5.500   0.0013   0.01471   0.00768  -0.1334  0.7841  0.0416  -2.8399   0.0000   0.0000   0.0000  103.6516
  -5.250   0.0289   0.01431   0.00727  -0.1334  0.7814  0.0435  -2.6743   0.0000   0.0000   0.0000   4.9978
  -5.000   0.0567   0.01399   0.00686  -0.1335  0.7780  0.0456  -2.5176   0.0000   0.0000   0.0000   2.6680
  -4.750   0.0840   0.01351   0.00641  -0.1336  0.7752  0.0483  -2.3710   0.0000   0.0000   0.0000   1.8801
  -4.500   0.1126   0.01324   0.00605  -0.1337  0.7729  0.0513  -2.2290   0.0000   0.0000   0.0000   1.4665
  -4.250   0.1397   0.01285   0.00572  -0.1338  0.7693  0.0545  -2.0885   0.0000   0.0000   0.0000   1.2295
  -4.000   0.1676   0.01252   0.00538  -0.1339  0.7662  0.0586  -1.9496   0.0000   0.0000   0.0000   1.0657
  -3.750   0.1961   0.01226   0.00508  -0.1340  0.7637  0.0637  -1.8095   0.0000   0.0000   0.0000   0.9470
  -3.500   0.2240   0.01202   0.00485  -0.1342  0.7605  0.0697  -1.6770   0.0000   0.0000   0.0000   0.8598
  -3.250   0.2520   0.01175   0.00463  -0.1343  0.7571  0.0779  -1.5538   0.0000   0.0000   0.0000   0.7917
  -3.000   0.2806   0.01152   0.00440  -0.1345  0.7544  0.0899  -1.4315   0.0000   0.0000   0.0000   0.7365
  -2.750   0.3088   0.01125   0.00422  -0.1347  0.7514  0.1094  -1.3115   0.0000   0.0000   0.0000   0.6920
  -2.500   0.3367   0.01097   0.00410  -0.1349  0.7478  0.1454  -1.1936   0.0000   0.0000   0.0000   0.6554
  -2.250   0.3650   0.01071   0.00399  -0.1351  0.7448  0.1950  -1.0839   0.0000   0.0000   0.0000   0.6241
  -2.000   0.3936   0.01053   0.00392  -0.1354  0.7421  0.2431  -0.9757   0.0000   0.0000   0.0000   0.5971
  -1.750   0.4213   0.01036   0.00391  -0.1355  0.7382  0.2884  -0.8713   0.0000   0.0000   0.0000   0.5740
  -1.500   0.4497   0.01019   0.00386  -0.1358  0.7351  0.3371  -0.7829   0.0000   0.0000   0.0000   0.5535
  -1.250   0.4785   0.01001   0.00381  -0.1360  0.7324  0.3933  -0.8012   0.0000   0.0000   0.0000   0.5354
  -1.000   0.5056   0.00982   0.00384  -0.1361  0.7283  0.4598  -0.8188   0.0000   0.0000   0.0000   0.5196
  -0.750   0.5333   0.00959   0.00385  -0.1361  0.7250  0.5422  -0.8374   0.0000   0.0000   0.0000   0.5053
  -0.500   0.5609   0.00936   0.00386  -0.1360  0.7222  0.6368  -0.8565   0.0000   0.0000   0.0000   0.4921
  -0.250   0.5861   0.00918   0.00396  -0.1354  0.7179  0.7262  -0.8745   0.0000   0.0000   0.0000   0.4802
   0.000   0.6108   0.00897   0.00398  -0.1345  0.7145  0.8056  -0.8930   0.0000   0.0000   0.0000   0.4690
   0.250   0.6328   0.00878   0.00397  -0.1327  0.7114  0.8990  -0.9108   0.0000   0.0000   0.0000   0.4581
   0.500   0.6747   0.00867   0.00391  -0.1355  0.7071  1.0001  -0.9394   0.0000   0.0000   0.0000   0.4489
   0.750   0.7033   0.00870   0.00387  -0.1357  0.7035  1.0001  -0.9615   0.0000   0.0000   0.0000   0.4406
   1.000   0.7315   0.00877   0.00387  -0.1358  0.6997  1.0001  -0.9839   0.0000   0.0000   0.0000   0.4330
   1.250   0.7592   0.00882   0.00389  -0.1359  0.6952  1.0001  -1.0065   0.0000   0.0000   0.0000   0.4259
   1.500   0.7883   0.00886   0.00385  -0.1361  0.6918  1.0001  -1.0308   0.0000   0.0000   0.0000   0.4193
   1.750   0.8154   0.00892   0.00392  -0.1360  0.6868  1.0001  -1.0544   0.0000   0.0000   0.0000   0.4131
   2.000   0.8439   0.00897   0.00391  -0.1362  0.6826  1.0001  -1.0797   0.0000   0.0000   0.0000   0.4074
   2.250   0.8716   0.00903   0.00395  -0.1362  0.6780  1.0001  -1.1053   0.0000   0.0000   0.0000   0.4019
   2.500   0.8994   0.00908   0.00398  -0.1362  0.6731  1.0001  -1.1319   0.0000   0.0000   0.0000   0.3968
   2.750   0.9274   0.00914   0.00401  -0.1363  0.6684  1.0001  -1.1595   0.0000   0.0000   0.0000   0.3920
   3.000   0.9547   0.00919   0.00406  -0.1362  0.6628  1.0001  -1.1877   0.0000   0.0000   0.0000   0.3874
   3.250   0.9825   0.00926   0.00409  -0.1363  0.6577  1.0001  -1.2174   0.0000   0.0000   0.0000   0.3831
   3.500   1.0097   0.00931   0.00415  -0.1362  0.6517  1.0001  -1.2480   0.0000   0.0000   0.0000   0.3789
   3.750   1.0368   0.00938   0.00422  -0.1361  0.6457  1.0001  -1.2798   0.0000   0.0000   0.0000   0.3750
   4.000   1.0641   0.00944   0.00425  -0.1360  0.6396  1.0001  -1.3136   0.0000   0.0000   0.0000   0.3712
   4.250   1.0905   0.00952   0.00436  -0.1358  0.6323  1.0001  -1.3481   0.0000   0.0000   0.0000   0.3676
   4.500   1.1172   0.00961   0.00443  -0.1356  0.6254  1.0001  -1.3850   0.0000   0.0000   0.0000   0.3642
   4.750   1.1437   0.00969   0.00450  -0.1354  0.6179  1.0001  -1.4239   0.0000   0.0000   0.0000   0.3608
   5.000   1.1694   0.00979   0.00463  -0.1351  0.6092  1.0001  -1.4645   0.0000   0.0000   0.0000   0.3576
   5.250   1.1951   0.00991   0.00475  -0.1348  0.6002  1.0001  -1.5084   0.0000   0.0000   0.0000   0.3545
   5.500   1.2204   0.01004   0.00487  -0.1344  0.5907  1.0001  -1.5564   0.0000   0.0000   0.0000   0.3515
   5.750   1.2454   0.01018   0.00502  -0.1339  0.5803  1.0001  -1.6121   0.0000   0.0000   0.0000   0.3486
   6.000   1.2698   0.01035   0.00518  -0.1333  0.5691  1.0001  -1.6838   0.0000   0.0000   0.0000   0.3457
   6.250   1.2936   0.01054   0.00536  -0.1327  0.5568  1.0001  -1.7630   0.0000   0.0000   0.0000   0.3429
   6.500   1.3166   0.01076   0.00556  -0.1319  0.5435  1.0001  -1.8462   0.0000   0.0000   0.0000   0.3401
   6.750   1.3387   0.01102   0.00579  -0.1309  0.5288  1.0001  -1.9331   0.0000   0.0000   0.0000   0.3374
   7.000   1.3596   0.01132   0.00605  -0.1298  0.5122  1.0001  -2.0242   0.0000   0.0000   0.0000   0.3347
   7.250   1.3791   0.01168   0.00637  -0.1284  0.4945  1.0001  -2.1205   0.0000   0.0000   0.0000   0.3320
   7.750   1.4140   0.01256   0.00712  -0.1250  0.4574  1.0001  -2.3228   0.0000   0.0000   0.0000   0.3265
   8.000   1.4297   0.01305   0.00756  -0.1231  0.4396  1.0001  -2.4290   0.0000   0.0000   0.0000   0.3238
   8.250   1.4418   0.01359   0.00804  -0.1205  0.4223  1.0001  -2.5281   0.0000   0.0000   0.0000   0.3209
   8.500   1.4543   0.01416   0.00858  -0.1181  0.4047  1.0001  -2.6292   0.0000   0.0000   0.0000   0.3181
   8.750   1.4654   0.01485   0.00921  -0.1156  0.3872  1.0001  -2.7331   0.0000   0.0000   0.0000   0.3154
   9.000   1.4757   0.01563   0.00994  -0.1131  0.3690  1.0001  -2.8369   0.0000   0.0000   0.0000   0.3127
   9.250   1.4856   0.01648   0.01075  -0.1107  0.3503  1.0001  -2.9409   0.0000   0.0000   0.0000   0.3102
   9.500   1.4945   0.01746   0.01167  -0.1084  0.3313  1.0001  -3.0427   0.0000   0.0000   0.0000   0.3077
   9.750   1.5024   0.01856   0.01271  -0.1060  0.3118  1.0001  -3.1427   0.0000   0.0000   0.0000   0.3054
  10.000   1.5095   0.01978   0.01386  -0.1038  0.2921  1.0001  -3.2469   0.0000   0.0000   0.0000   0.3031
  10.250   1.5158   0.02111   0.01511  -0.1015  0.2721  1.0001  -3.3502   0.0000   0.0000   0.0000   0.3009
  10.500   1.5213   0.02254   0.01647  -0.0993  0.2520  1.0001  -3.4517   0.0000   0.0000   0.0000   0.2987
  10.750   1.5260   0.02407   0.01793  -0.0972  0.2323  1.0001  -3.5515   0.0000   0.0000   0.0000   0.2966
  11.000   1.5300   0.02570   0.01948  -0.0950  0.2128  1.0001  -3.6494   0.0000   0.0000   0.0000   0.2946
  11.250   1.5332   0.02743   0.02113  -0.0929  0.1938  1.0001  -3.7449   0.0000   0.0000   0.0000   0.2926
  11.500   1.5358   0.02923   0.02285  -0.0908  0.1755  1.0001  -3.8408   0.0000   0.0000   0.0000   0.2906
  11.750   1.5383   0.03109   0.02464  -0.0888  0.1577  1.0001  -3.9414   0.0000   0.0000   0.0000   0.2888
  12.000   1.5399   0.03303   0.02652  -0.0868  0.1409  1.0001  -4.0394   0.0000   0.0000   0.0000   0.2869
  12.250   1.5412   0.03506   0.02848  -0.0849  0.1255  1.0001  -4.1361   0.0000   0.0000   0.0000   0.2851
  12.500   1.5423   0.03716   0.03053  -0.0831  0.1114  1.0001  -4.2326   0.0000   0.0000   0.0000   0.2834
  12.750   1.5431   0.03934   0.03266  -0.0814  0.0991  1.0001  -4.3282   0.0000   0.0000   0.0000   0.2818
  13.000   1.5436   0.04161   0.03490  -0.0797  0.0885  1.0001  -4.4225   0.0000   0.0000   0.0000   0.2802
  13.250   1.5452   0.04387   0.03714  -0.0783  0.0794  1.0001  -4.5204   0.0000   0.0000   0.0000   0.2786
  13.500   1.5462   0.04623   0.03949  -0.0769  0.0720  1.0001  -4.6197   0.0000   0.0000   0.0000   0.2772
  13.750   1.5471   0.04864   0.04192  -0.0756  0.0660  1.0001  -4.7225   0.0000   0.0000   0.0000   0.2758
  14.000   1.5481   0.05111   0.04441  -0.0744  0.0610  1.0001  -4.8255   0.0000   0.0000   0.0000   0.2745
  14.250   1.5490   0.05365   0.04699  -0.0734  0.0567  1.0001  -4.9282   0.0000   0.0000   0.0000   0.2732
  14.500   1.5490   0.05635   0.04973  -0.0724  0.0532  1.0001  -5.0267   0.0000   0.0000   0.0000   0.2720
  14.750   1.5486   0.05915   0.05256  -0.0715  0.0500  1.0001  -5.1244   0.0000   0.0000   0.0000   0.2709
  15.000   1.5496   0.06183   0.05531  -0.0707  0.0470  1.0001  -5.2271   0.0000   0.0000   0.0000   0.2699
  15.250   1.5461   0.06507   0.05857  -0.0700  0.0449  1.0001  -5.3099   0.0000   0.0000   0.0000   0.2689
  15.500   1.5478   0.06779   0.06139  -0.0694  0.0425  1.0001  -5.4147   0.0000   0.0000   0.0000   0.2679
  15.750   1.5444   0.07114   0.06479  -0.0689  0.0407  1.0001  -5.5029   0.0000   0.0000   0.0000   0.2671
  16.000   1.5433   0.07429   0.06803  -0.0685  0.0390  1.0001  -5.6013   0.0000   0.0000   0.0000   0.2663
  16.250   1.5422   0.07748   0.07129  -0.0682  0.0373  1.0001  -5.7016   0.0000   0.0000   0.0000   0.2656
  16.500   1.5353   0.08140   0.07524  -0.0680  0.0361  1.0001  -5.7710   0.0000   0.0000   0.0000   0.2651
  16.750   1.5357   0.08448   0.07844  -0.0679  0.0346  1.0001  -5.8763   0.0000   0.0000   0.0000   0.2644
  17.000   1.5339   0.08789   0.08193  -0.0679  0.0334  1.0001  -5.9718   0.0000   0.0000   0.0000   0.2639
  17.250   1.5283   0.09181   0.08589  -0.0681  0.0324  1.0001  -6.0466   0.0000   0.0000   0.0000   0.2635
  17.500   1.5251   0.09547   0.08966  -0.0683  0.0314  1.0001  -6.1297   0.0000   0.0000   0.0000   0.2632
  17.750   1.5233   0.09897   0.09326  -0.0686  0.0304  1.0001  -6.2211   0.0000   0.0000   0.0000   0.2628
  18.000   1.5204   0.10262   0.09699  -0.0690  0.0295  1.0001  -6.3072   0.0000   0.0000   0.0000   0.2626
  18.250   1.5160   0.10649   0.10091  -0.0695  0.0287  1.0001  -6.3839   0.0000   0.0000   0.0000   0.2624
  18.500   1.5113   0.11037   0.10484  -0.0701  0.0280  1.0001  -6.4554   0.0000   0.0000   0.0000   0.2623
  18.750   1.5102   0.11392   0.10851  -0.0708  0.0272  1.0001  -6.5485   0.0000   0.0000   0.0000   0.2622
  19.000   1.5084   0.11755   0.11223  -0.0715  0.0264  1.0001  -6.6445   0.0000   0.0000   0.0000   0.2621
  19.250   1.5064   0.12121   0.11597  -0.0725  0.0257  1.0001  -6.7401   0.0000   0.0000   0.0000   0.2621
  19.500   1.5039   0.12489   0.11968  -0.0734  0.0251  1.0001  -6.8325   0.0000   0.0000   0.0000   0.2622
  19.750   1.5020   0.12839   0.12323  -0.0743  0.0244  1.0001  -6.9233   0.0000   0.0000   0.0000   0.2622
  20.000   1.5005   0.13207   0.12705  -0.0754  0.0239  1.0001  -7.0133   0.0000   0.0000   0.0000   0.2624


