xflr5 v6.61

 Calculated polar for: QX0026 thickness=13.65

 1 1 Reynolds number fixed          Mach number fixed         

 xtrf =   1.000 (top)        1.000 (bottom)
 Mach =   0.000     Re =     0.920 e 6     Ncrit =   9.000

  alpha     CL        CD       CDp       Cm    Top Xtr Bot Xtr   Cpmin    Chinge    XCp    
 ------- -------- --------- --------- -------- ------- ------- -------- --------- ---------
 -10.000  -0.4933   0.01857   0.01365  -0.1289  0.7948  0.0181  -6.8525   0.0000   0.0000   0.0000  -0.0296
  -9.750  -0.4682   0.01789   0.01285  -0.1290  0.7919  0.0185  -6.6175   0.0000   0.0000   0.0000  -0.0440
  -9.500  -0.4424   0.01726   0.01211  -0.1291  0.7884  0.0190  -6.3817   0.0000   0.0000   0.0000  -0.0606
  -9.250  -0.4161   0.01673   0.01147  -0.1292  0.7853  0.0194  -6.1433   0.0000   0.0000   0.0000  -0.0796
  -9.000  -0.3893   0.01636   0.01096  -0.1293  0.7826  0.0197  -5.9013   0.0000   0.0000   0.0000  -0.1017
  -8.750  -0.3655   0.01512   0.00962  -0.1293  0.7794  0.0204  -5.7100   0.0000   0.0000   0.0000  -0.1239
  -8.500  -0.3388   0.01463   0.00909  -0.1295  0.7763  0.0209  -5.4713   0.0000   0.0000   0.0000  -0.1528
  -8.250  -0.3117   0.01424   0.00864  -0.1296  0.7736  0.0215  -5.2343   0.0000   0.0000   0.0000  -0.1872
  -8.000  -0.2844   0.01384   0.00817  -0.1297  0.7708  0.0221  -5.0039   0.0000   0.0000   0.0000  -0.2287
  -7.750  -0.2569   0.01344   0.00769  -0.1298  0.7678  0.0227  -4.7788   0.0000   0.0000   0.0000  -0.2793
  -7.500  -0.2291   0.01312   0.00729  -0.1299  0.7651  0.0232  -4.5544   0.0000   0.0000   0.0000  -0.3428
  -7.250  -0.2026   0.01246   0.00655  -0.1300  0.7626  0.0241  -4.3533   0.0000   0.0000   0.0000  -0.4193
  -7.000  -0.1747   0.01214   0.00623  -0.1302  0.7596  0.0249  -4.1442   0.0000   0.0000   0.0000  -0.5258
  -6.750  -0.1465   0.01189   0.00594  -0.1304  0.7568  0.0259  -3.9396   0.0000   0.0000   0.0000  -0.6743
  -6.500  -0.1183   0.01164   0.00561  -0.1305  0.7543  0.0268  -3.7434   0.0000   0.0000   0.0000  -0.8938
  -6.250  -0.0906   0.01124   0.00516  -0.1306  0.7517  0.0277  -3.5583   0.0000   0.0000   0.0000  -1.2433
  -6.000  -0.0625   0.01091   0.00483  -0.1308  0.7488  0.0289  -3.3664   0.0000   0.0000   0.0000  -1.9132
  -5.750  -0.0341   0.01069   0.00458  -0.1310  0.7461  0.0301  -3.1760   0.0000   0.0000   0.0000  -3.7184
  -5.500  -0.0054   0.01053   0.00434  -0.1312  0.7436  0.0313  -2.9895   0.0000   0.0000   0.0000  -24.6277
  -5.250   0.0227   0.01019   0.00401  -0.1314  0.7410  0.0331  -2.8099   0.0000   0.0000   0.0000   6.2026
  -5.000   0.0514   0.01001   0.00382  -0.1316  0.7380  0.0349  -2.6351   0.0000   0.0000   0.0000   2.8797
  -4.750   0.0799   0.00977   0.00354  -0.1318  0.7353  0.0367  -2.4769   0.0000   0.0000   0.0000   1.9403
  -4.500   0.1086   0.00961   0.00335  -0.1320  0.7328  0.0390  -2.3166   0.0000   0.0000   0.0000   1.4941
  -4.250   0.1373   0.00941   0.00315  -0.1322  0.7299  0.0415  -2.1614   0.0000   0.0000   0.0000   1.2340
  -4.000   0.1660   0.00925   0.00299  -0.1324  0.7268  0.0447  -2.0063   0.0000   0.0000   0.0000   1.0637
  -3.750   0.1948   0.00907   0.00280  -0.1326  0.7241  0.0484  -1.8565   0.0000   0.0000   0.0000   0.9437
  -3.500   0.2236   0.00893   0.00264  -0.1328  0.7213  0.0528  -1.7144   0.0000   0.0000   0.0000   0.8544
  -3.250   0.2524   0.00877   0.00251  -0.1330  0.7181  0.0586  -1.5817   0.0000   0.0000   0.0000   0.7855
  -3.000   0.2812   0.00861   0.00238  -0.1333  0.7151  0.0666  -1.4515   0.0000   0.0000   0.0000   0.7307
  -2.750   0.3100   0.00848   0.00226  -0.1335  0.7124  0.0780  -1.3242   0.0000   0.0000   0.0000   0.6861
  -2.250   0.3674   0.00812   0.00207  -0.1340  0.7060  0.1244  -1.0863   0.0000   0.0000   0.0000   0.6182
  -2.000   0.3961   0.00795   0.00200  -0.1343  0.7031  0.1586  -0.9766   0.0000   0.0000   0.0000   0.5917
  -1.750   0.4248   0.00780   0.00196  -0.1346  0.7000  0.1962  -0.8693   0.0000   0.0000   0.0000   0.5687
  -1.500   0.4535   0.00765   0.00192  -0.1348  0.6966  0.2329  -0.7899   0.0000   0.0000   0.0000   0.5487
  -1.250   0.4823   0.00754   0.00189  -0.1351  0.6934  0.2692  -0.8080   0.0000   0.0000   0.0000   0.5309
  -1.000   0.5110   0.00743   0.00187  -0.1354  0.6903  0.3080  -0.8264   0.0000   0.0000   0.0000   0.5152
  -0.750   0.5397   0.00729   0.00187  -0.1356  0.6867  0.3525  -0.8453   0.0000   0.0000   0.0000   0.5011
  -0.500   0.5683   0.00715   0.00186  -0.1359  0.6832  0.4044  -0.8647   0.0000   0.0000   0.0000   0.4885
  -0.250   0.5968   0.00702   0.00187  -0.1362  0.6800  0.4667  -0.8845   0.0000   0.0000   0.0000   0.4771
   0.000   0.6251   0.00683   0.00190  -0.1364  0.6761  0.5434  -0.9048   0.0000   0.0000   0.0000   0.4667
   0.250   0.6530   0.00664   0.00195  -0.1365  0.6725  0.6323  -0.9254   0.0000   0.0000   0.0000   0.4572
   0.500   0.6808   0.00651   0.00200  -0.1365  0.6689  0.7066  -0.9465   0.0000   0.0000   0.0000   0.4483
   0.750   0.7083   0.00638   0.00205  -0.1364  0.6646  0.7669  -0.9679   0.0000   0.0000   0.0000   0.4400
   1.000   0.7341   0.00625   0.00209  -0.1359  0.6608  0.8379  -0.9891   0.0000   0.0000   0.0000   0.4322
   1.250   0.7560   0.00607   0.00214  -0.1342  0.6566  0.9366  -1.0087   0.0000   0.0000   0.0000   0.4243
   1.500   0.7936   0.00604   0.00211  -0.1363  0.6521  1.0001  -1.0378   0.0000   0.0000   0.0000   0.4183
   1.750   0.8219   0.00610   0.00214  -0.1365  0.6478  1.0001  -1.0622   0.0000   0.0000   0.0000   0.4122
   2.000   0.8503   0.00615   0.00217  -0.1366  0.6427  1.0001  -1.0875   0.0000   0.0000   0.0000   0.4065
   2.250   0.8784   0.00623   0.00220  -0.1367  0.6380  1.0001  -1.1133   0.0000   0.0000   0.0000   0.4012
   2.500   0.9067   0.00628   0.00225  -0.1369  0.6323  1.0001  -1.1402   0.0000   0.0000   0.0000   0.3962
   2.750   0.9345   0.00636   0.00229  -0.1369  0.6271  1.0001  -1.1678   0.0000   0.0000   0.0000   0.3914
   3.000   0.9626   0.00642   0.00235  -0.1371  0.6208  1.0001  -1.1965   0.0000   0.0000   0.0000   0.3870
   3.250   0.9904   0.00651   0.00241  -0.1371  0.6147  1.0001  -1.2263   0.0000   0.0000   0.0000   0.3827
   3.500   1.0180   0.00660   0.00248  -0.1371  0.6078  1.0001  -1.2573   0.0000   0.0000   0.0000   0.3787
   3.750   1.0456   0.00669   0.00255  -0.1372  0.6005  1.0001  -1.2896   0.0000   0.0000   0.0000   0.3748
   4.000   1.0729   0.00679   0.00264  -0.1372  0.5929  1.0001  -1.3234   0.0000   0.0000   0.0000   0.3712
   4.250   1.0998   0.00692   0.00273  -0.1371  0.5845  1.0001  -1.3586   0.0000   0.0000   0.0000   0.3676
   4.500   1.1267   0.00704   0.00284  -0.1370  0.5751  1.0001  -1.3959   0.0000   0.0000   0.0000   0.3643
   4.750   1.1533   0.00718   0.00295  -0.1369  0.5648  1.0001  -1.4352   0.0000   0.0000   0.0000   0.3610
   5.000   1.1794   0.00734   0.00308  -0.1366  0.5535  1.0001  -1.4767   0.0000   0.0000   0.0000   0.3579
   5.250   1.2050   0.00752   0.00322  -0.1364  0.5411  1.0001  -1.5210   0.0000   0.0000   0.0000   0.3548
   5.500   1.2304   0.00772   0.00338  -0.1360  0.5270  1.0001  -1.5700   0.0000   0.0000   0.0000   0.3519
   5.750   1.2548   0.00796   0.00357  -0.1355  0.5115  1.0001  -1.6278   0.0000   0.0000   0.0000   0.3490
   6.000   1.2785   0.00824   0.00379  -0.1349  0.4950  1.0001  -1.7016   0.0000   0.0000   0.0000   0.3462
   6.250   1.3013   0.00856   0.00403  -0.1341  0.4770  1.0001  -1.7806   0.0000   0.0000   0.0000   0.3434
   6.500   1.3235   0.00890   0.00430  -0.1333  0.4577  1.0001  -1.8639   0.0000   0.0000   0.0000   0.3406
   6.750   1.3448   0.00928   0.00459  -0.1323  0.4377  1.0001  -1.9505   0.0000   0.0000   0.0000   0.3379
   7.000   1.3656   0.00968   0.00491  -0.1312  0.4182  1.0001  -2.0423   0.0000   0.0000   0.0000   0.3353
   7.250   1.3856   0.01010   0.00525  -0.1300  0.3996  1.0001  -2.1412   0.0000   0.0000   0.0000   0.3327
   7.500   1.4053   0.01051   0.00560  -0.1288  0.3810  1.0001  -2.2477   0.0000   0.0000   0.0000   0.3301
   7.750   1.4238   0.01096   0.00598  -0.1274  0.3624  1.0001  -2.3563   0.0000   0.0000   0.0000   0.3275
   8.000   1.4395   0.01145   0.00638  -0.1254  0.3438  1.0001  -2.4633   0.0000   0.0000   0.0000   0.3248
   8.250   1.4535   0.01200   0.00685  -0.1232  0.3249  1.0001  -2.5674   0.0000   0.0000   0.0000   0.3220
   8.500   1.4667   0.01262   0.00739  -0.1209  0.3052  1.0001  -2.6741   0.0000   0.0000   0.0000   0.3193
   8.750   1.4790   0.01332   0.00800  -0.1187  0.2849  1.0001  -2.7831   0.0000   0.0000   0.0000   0.3167
   9.000   1.4904   0.01410   0.00869  -0.1164  0.2645  1.0001  -2.8911   0.0000   0.0000   0.0000   0.3142
   9.250   1.5011   0.01497   0.00947  -0.1141  0.2442  1.0001  -2.9980   0.0000   0.0000   0.0000   0.3117
   9.500   1.5110   0.01593   0.01034  -0.1119  0.2243  1.0001  -3.1039   0.0000   0.0000   0.0000   0.3093
   9.750   1.5203   0.01698   0.01130  -0.1097  0.2048  1.0001  -3.2136   0.0000   0.0000   0.0000   0.3070
  10.000   1.5287   0.01814   0.01236  -0.1076  0.1858  1.0001  -3.3238   0.0000   0.0000   0.0000   0.3047
  10.250   1.5365   0.01938   0.01351  -0.1054  0.1678  1.0001  -3.4332   0.0000   0.0000   0.0000   0.3025
  10.500   1.5444   0.02064   0.01470  -0.1034  0.1510  1.0001  -3.5440   0.0000   0.0000   0.0000   0.3004
  10.750   1.5518   0.02199   0.01597  -0.1014  0.1349  1.0001  -3.6539   0.0000   0.0000   0.0000   0.2984
  11.000   1.5584   0.02340   0.01731  -0.0994  0.1198  1.0001  -3.7621   0.0000   0.0000   0.0000   0.2963
  11.250   1.5647   0.02488   0.01872  -0.0975  0.1060  1.0001  -3.8729   0.0000   0.0000   0.0000   0.2944
  11.500   1.5708   0.02638   0.02018  -0.0956  0.0940  1.0001  -3.9887   0.0000   0.0000   0.0000   0.2924
  11.750   1.5773   0.02787   0.02163  -0.0938  0.0837  1.0001  -4.1069   0.0000   0.0000   0.0000   0.2906
  12.000   1.5836   0.02942   0.02315  -0.0921  0.0749  1.0001  -4.2251   0.0000   0.0000   0.0000   0.2887
  12.250   1.5899   0.03098   0.02469  -0.0904  0.0671  1.0001  -4.3447   0.0000   0.0000   0.0000   0.2870
  12.500   1.5956   0.03260   0.02630  -0.0888  0.0605  1.0001  -4.4629   0.0000   0.0000   0.0000   0.2852
  12.750   1.6015   0.03426   0.02795  -0.0872  0.0549  1.0001  -4.5828   0.0000   0.0000   0.0000   0.2836
  13.000   1.6079   0.03592   0.02962  -0.0858  0.0502  1.0001  -4.7085   0.0000   0.0000   0.0000   0.2819
  13.250   1.6145   0.03760   0.03132  -0.0844  0.0462  1.0001  -4.8413   0.0000   0.0000   0.0000   0.2804
  13.500   1.6207   0.03933   0.03307  -0.0831  0.0428  1.0001  -4.9735   0.0000   0.0000   0.0000   0.2788
  13.750   1.6259   0.04120   0.03496  -0.0818  0.0399  1.0001  -5.1020   0.0000   0.0000   0.0000   0.2773
  14.000   1.6318   0.04304   0.03683  -0.0806  0.0372  1.0001  -5.2352   0.0000   0.0000   0.0000   0.2759
  14.250   1.6373   0.04497   0.03880  -0.0795  0.0348  1.0001  -5.3670   0.0000   0.0000   0.0000   0.2745
  14.500   1.6416   0.04703   0.04089  -0.0784  0.0327  1.0001  -5.4950   0.0000   0.0000   0.0000   0.2732
  14.750   1.6467   0.04906   0.04297  -0.0774  0.0309  1.0001  -5.6263   0.0000   0.0000   0.0000   0.2719
  15.000   1.6505   0.05123   0.04518  -0.0764  0.0292  1.0001  -5.7606   0.0000   0.0000   0.0000   0.2706
  15.250   1.6532   0.05357   0.04757  -0.0754  0.0278  1.0001  -5.8905   0.0000   0.0000   0.0000   0.2694
  15.500   1.6578   0.05576   0.04982  -0.0747  0.0265  1.0001  -6.0316   0.0000   0.0000   0.0000   0.2682
  15.750   1.6597   0.05827   0.05238  -0.0738  0.0254  1.0001  -6.1597   0.0000   0.0000   0.0000   0.2671
  16.000   1.6607   0.06092   0.05508  -0.0731  0.0243  1.0001  -6.2832   0.0000   0.0000   0.0000   0.2660
  16.250   1.6642   0.06331   0.05755  -0.0725  0.0233  1.0001  -6.4208   0.0000   0.0000   0.0000   0.2649
  16.500   1.6652   0.06601   0.06031  -0.0719  0.0224  1.0001  -6.5465   0.0000   0.0000   0.0000   0.2640
  16.750   1.6625   0.06919   0.06354  -0.0713  0.0216  1.0001  -6.6518   0.0000   0.0000   0.0000   0.2631
  17.000   1.6631   0.07205   0.06648  -0.0709  0.0209  1.0001  -6.7742   0.0000   0.0000   0.0000   0.2622
  17.250   1.6641   0.07490   0.06942  -0.0706  0.0203  1.0001  -6.8996   0.0000   0.0000   0.0000   0.2614
  17.500   1.6636   0.07798   0.07256  -0.0703  0.0196  1.0001  -7.0169   0.0000   0.0000   0.0000   0.2606
  17.750   1.6609   0.08132   0.07598  -0.0702  0.0191  1.0001  -7.1276   0.0000   0.0000   0.0000   0.2600
  18.000   1.6546   0.08519   0.07991  -0.0701  0.0185  1.0001  -7.2172   0.0000   0.0000   0.0000   0.2595
  18.250   1.6489   0.08907   0.08389  -0.0702  0.0181  1.0001  -7.3081   0.0000   0.0000   0.0000   0.2590
  18.500   1.6477   0.09238   0.08729  -0.0703  0.0177  1.0001  -7.4288   0.0000   0.0000   0.0000   0.2585
  18.750   1.6453   0.09590   0.09090  -0.0706  0.0172  1.0001  -7.5410   0.0000   0.0000   0.0000   0.2581
  19.000   1.6420   0.09955   0.09464  -0.0710  0.0168  1.0001  -7.6482   0.0000   0.0000   0.0000   0.2578
  19.250   1.6372   0.10343   0.09859  -0.0715  0.0164  1.0001  -7.7448   0.0000   0.0000   0.0000   0.2575
  19.500   1.6303   0.10764   0.10288  -0.0722  0.0160  1.0001  -7.8252   0.0000   0.0000   0.0000   0.2575
  19.750   1.6202   0.11239   0.10771  -0.0731  0.0157  1.0001  -7.8804   0.0000   0.0000   0.0000   0.2577
  20.000   1.6087   0.11746   0.11287  -0.0743  0.0154  1.0001  -7.9198   0.0000   0.0000   0.0000   0.2581


