xflr5 v6.61

 Calculated polar for: QX0026 thickness=13.65

 1 1 Reynolds number fixed          Mach number fixed         

 xtrf =   1.000 (top)        1.000 (bottom)
 Mach =   0.000     Re =     0.500 e 6     Ncrit =   9.000

  alpha     CL        CD       CDp       Cm    Top Xtr Bot Xtr   Cpmin    Chinge    XCp    
 ------- -------- --------- --------- -------- ------- ------- -------- --------- ---------
 -10.000  -0.3639   0.05043   0.04742  -0.1068  0.8357  0.0238  -4.7799   0.0000   0.0000   0.0000  -0.0661
  -9.750  -0.3508   0.04780   0.04477  -0.1109  0.8311  0.0240  -4.6456   0.0000   0.0000   0.0000  -0.0885
  -9.500  -0.3324   0.04500   0.04191  -0.1173  0.8265  0.0244  -4.4885   0.0000   0.0000   0.0000  -0.1253
  -9.250  -0.3117   0.04445   0.04133  -0.1188  0.8226  0.0249  -4.2660   0.0000   0.0000   0.0000  -0.1539
  -9.000  -0.2633   0.05664   0.05364  -0.1030  0.8203  0.0267  -3.5130   0.0000   0.0000   0.0000  -0.1663
  -8.750  -0.2450   0.05598   0.05299  -0.1056  0.8159  0.0280  -3.2938   0.0000   0.0000   0.0000  -0.2064
  -8.500  -0.2298   0.05232   0.04929  -0.1121  0.8123  0.0288  -3.2124   0.0000   0.0000   0.0000  -0.2637
  -8.250  -0.2097   0.05021   0.04713  -0.1165  0.8086  0.0328  -3.0379   0.0000   0.0000   0.0000  -0.3324
  -7.750  -0.2437   0.01852   0.01244  -0.1319  0.8005  0.0280  -4.4828   0.0000   0.0000   0.0000  -0.3161
  -7.500  -0.2174   0.01796   0.01183  -0.1320  0.7971  0.0288  -4.2742   0.0000   0.0000   0.0000  -0.3842
  -7.250  -0.1906   0.01740   0.01116  -0.1321  0.7943  0.0299  -4.0755   0.0000   0.0000   0.0000  -0.4724
  -7.000  -0.1637   0.01679   0.01034  -0.1322  0.7916  0.0310  -3.8938   0.0000   0.0000   0.0000  -0.5902
  -6.750  -0.1376   0.01588   0.00933  -0.1322  0.7882  0.0319  -3.7392   0.0000   0.0000   0.0000  -0.7481
  -6.500  -0.1106   0.01533   0.00877  -0.1323  0.7853  0.0329  -3.5592   0.0000   0.0000   0.0000  -0.9907
  -6.250  -0.0829   0.01490   0.00824  -0.1324  0.7829  0.0342  -3.3852   0.0000   0.0000   0.0000  -1.4020
  -6.000  -0.0554   0.01449   0.00774  -0.1324  0.7797  0.0355  -3.2189   0.0000   0.0000   0.0000  -2.2216
  -5.750  -0.0284   0.01389   0.00714  -0.1325  0.7766  0.0371  -3.0512   0.0000   0.0000   0.0000  -4.5617
  -5.500  -0.0004   0.01358   0.00677  -0.1326  0.7741  0.0389  -2.8759   0.0000   0.0000   0.0000  -319.8092
  -5.250   0.0277   0.01328   0.00638  -0.1327  0.7713  0.0406  -2.7117   0.0000   0.0000   0.0000   5.1790
  -5.000   0.0548   0.01277   0.00591  -0.1328  0.7681  0.0426  -2.5500   0.0000   0.0000   0.0000   2.7392
  -4.750   0.0831   0.01251   0.00559  -0.1329  0.7653  0.0451  -2.4003   0.0000   0.0000   0.0000   1.8907
  -4.500   0.1112   0.01217   0.00522  -0.1331  0.7630  0.0479  -2.2524   0.0000   0.0000   0.0000   1.4758
  -4.250   0.1393   0.01195   0.00499  -0.1332  0.7596  0.0510  -2.1078   0.0000   0.0000   0.0000   1.2280
  -4.000   0.1672   0.01161   0.00467  -0.1334  0.7565  0.0547  -1.9646   0.0000   0.0000   0.0000   1.0642
  -3.750   0.1957   0.01136   0.00439  -0.1336  0.7540  0.0594  -1.8218   0.0000   0.0000   0.0000   0.9456
  -3.500   0.2240   0.01113   0.00418  -0.1337  0.7510  0.0652  -1.6861   0.0000   0.0000   0.0000   0.8576
  -3.250   0.2522   0.01091   0.00398  -0.1339  0.7476  0.0727  -1.5610   0.0000   0.0000   0.0000   0.7894
  -3.000   0.2809   0.01069   0.00377  -0.1341  0.7448  0.0836  -1.4367   0.0000   0.0000   0.0000   0.7344
  -2.750   0.3095   0.01047   0.00360  -0.1343  0.7421  0.1013  -1.3141   0.0000   0.0000   0.0000   0.6898
  -2.500   0.3374   0.01021   0.00349  -0.1345  0.7385  0.1325  -1.1946   0.0000   0.0000   0.0000   0.6533
  -2.250   0.3658   0.00996   0.00339  -0.1347  0.7354  0.1771  -1.0841   0.0000   0.0000   0.0000   0.6221
  -2.000   0.3946   0.00978   0.00330  -0.1351  0.7328  0.2233  -0.9751   0.0000   0.0000   0.0000   0.5951
  -1.750   0.4225   0.00962   0.00329  -0.1352  0.7291  0.2660  -0.8700   0.0000   0.0000   0.0000   0.5722
  -1.500   0.4510   0.00946   0.00324  -0.1354  0.7257  0.3101  -0.7853   0.0000   0.0000   0.0000   0.5519
  -1.250   0.4798   0.00930   0.00319  -0.1357  0.7230  0.3603  -0.8035   0.0000   0.0000   0.0000   0.5339
  -1.000   0.5076   0.00913   0.00321  -0.1359  0.7193  0.4185  -0.8215   0.0000   0.0000   0.0000   0.5181
  -0.750   0.5355   0.00892   0.00321  -0.1360  0.7158  0.4901  -0.8401   0.0000   0.0000   0.0000   0.5039
  -0.500   0.5636   0.00871   0.00321  -0.1361  0.7128  0.5749  -0.8594   0.0000   0.0000   0.0000   0.4910
  -0.250   0.5901   0.00850   0.00329  -0.1359  0.7091  0.6693  -0.8781   0.0000   0.0000   0.0000   0.4793
   0.000   0.6163   0.00832   0.00333  -0.1354  0.7053  0.7497  -0.8974   0.0000   0.0000   0.0000   0.4684
   0.250   0.6414   0.00814   0.00334  -0.1346  0.7023  0.8257  -0.9167   0.0000   0.0000   0.0000   0.4581
   0.500   0.6632   0.00795   0.00338  -0.1328  0.6982  0.9235  -0.9346   0.0000   0.0000   0.0000   0.4482
   0.750   0.7048   0.00788   0.00329  -0.1357  0.6943  1.0001  -0.9638   0.0000   0.0000   0.0000   0.4401
   1.000   0.7337   0.00794   0.00327  -0.1359  0.6910  1.0001  -0.9866   0.0000   0.0000   0.0000   0.4325
   1.250   0.7611   0.00798   0.00331  -0.1359  0.6863  1.0001  -1.0091   0.0000   0.0000   0.0000   0.4254
   1.500   0.7897   0.00803   0.00329  -0.1361  0.6824  1.0001  -1.0330   0.0000   0.0000   0.0000   0.4189
   1.750   0.8176   0.00809   0.00333  -0.1361  0.6780  1.0001  -1.0571   0.0000   0.0000   0.0000   0.4127
   2.000   0.8456   0.00814   0.00335  -0.1362  0.6733  1.0001  -1.0821   0.0000   0.0000   0.0000   0.4070
   2.250   0.8738   0.00820   0.00336  -0.1363  0.6692  1.0001  -1.1081   0.0000   0.0000   0.0000   0.4016
   2.500   0.9013   0.00825   0.00341  -0.1363  0.6638  1.0001  -1.1344   0.0000   0.0000   0.0000   0.3965
   2.750   0.9296   0.00832   0.00343  -0.1364  0.6594  1.0001  -1.1623   0.0000   0.0000   0.0000   0.3917
   3.000   0.9568   0.00838   0.00350  -0.1363  0.6534  1.0001  -1.1903   0.0000   0.0000   0.0000   0.3872
   3.250   0.9847   0.00844   0.00353  -0.1364  0.6485  1.0001  -1.2201   0.0000   0.0000   0.0000   0.3829
   3.500   1.0117   0.00851   0.00361  -0.1363  0.6420  1.0001  -1.2506   0.0000   0.0000   0.0000   0.3787
   3.750   1.0390   0.00858   0.00367  -0.1362  0.6360  1.0001  -1.2826   0.0000   0.0000   0.0000   0.3748
   4.000   1.0661   0.00866   0.00373  -0.1361  0.6293  1.0001  -1.3162   0.0000   0.0000   0.0000   0.3711
   4.250   1.0928   0.00874   0.00383  -0.1360  0.6220  1.0001  -1.3510   0.0000   0.0000   0.0000   0.3675
   4.500   1.1195   0.00884   0.00391  -0.1358  0.6148  1.0001  -1.3880   0.0000   0.0000   0.0000   0.3641
   4.750   1.1459   0.00895   0.00400  -0.1356  0.6069  1.0001  -1.4268   0.0000   0.0000   0.0000   0.3608
   5.000   1.1718   0.00906   0.00413  -0.1354  0.5978  1.0001  -1.4678   0.0000   0.0000   0.0000   0.3576
   5.250   1.1976   0.00919   0.00425  -0.1351  0.5883  1.0001  -1.5118   0.0000   0.0000   0.0000   0.3545
   5.500   1.2230   0.00933   0.00439  -0.1347  0.5782  1.0001  -1.5601   0.0000   0.0000   0.0000   0.3515
   5.750   1.2479   0.00949   0.00455  -0.1342  0.5671  1.0001  -1.6165   0.0000   0.0000   0.0000   0.3486
   6.000   1.2722   0.00968   0.00472  -0.1337  0.5551  1.0001  -1.6889   0.0000   0.0000   0.0000   0.3457
   6.250   1.2957   0.00990   0.00491  -0.1330  0.5420  1.0001  -1.7681   0.0000   0.0000   0.0000   0.3429
   6.500   1.3186   0.01015   0.00513  -0.1322  0.5270  1.0001  -1.8515   0.0000   0.0000   0.0000   0.3402
   6.750   1.3402   0.01045   0.00538  -0.1312  0.5107  1.0001  -1.9379   0.0000   0.0000   0.0000   0.3375
   7.000   1.3608   0.01079   0.00567  -0.1300  0.4928  1.0001  -2.0286   0.0000   0.0000   0.0000   0.3347
   7.250   1.3797   0.01120   0.00601  -0.1285  0.4742  1.0001  -2.1241   0.0000   0.0000   0.0000   0.3320
   7.500   1.3976   0.01164   0.00639  -0.1270  0.4553  1.0001  -2.2251   0.0000   0.0000   0.0000   0.3293
   7.750   1.4150   0.01210   0.00679  -0.1253  0.4368  1.0001  -2.3281   0.0000   0.0000   0.0000   0.3266
   8.000   1.4300   0.01260   0.00723  -0.1232  0.4192  1.0001  -2.4329   0.0000   0.0000   0.0000   0.3238
   8.250   1.4429   0.01314   0.00772  -0.1208  0.4017  1.0001  -2.5338   0.0000   0.0000   0.0000   0.3210
   8.500   1.4557   0.01373   0.00826  -0.1184  0.3839  1.0001  -2.6358   0.0000   0.0000   0.0000   0.3183
   8.750   1.4672   0.01443   0.00890  -0.1160  0.3658  1.0001  -2.7418   0.0000   0.0000   0.0000   0.3156
   9.000   1.4777   0.01523   0.00963  -0.1136  0.3473  1.0001  -2.8462   0.0000   0.0000   0.0000   0.3130
   9.250   1.4879   0.01610   0.01045  -0.1114  0.3279  1.0001  -2.9513   0.0000   0.0000   0.0000   0.3105
   9.500   1.4971   0.01709   0.01137  -0.1091  0.3082  1.0001  -3.0543   0.0000   0.0000   0.0000   0.3081
   9.750   1.5054   0.01820   0.01241  -0.1068  0.2883  1.0001  -3.1561   0.0000   0.0000   0.0000   0.3057
  10.000   1.5129   0.01942   0.01355  -0.1046  0.2682  1.0001  -3.2624   0.0000   0.0000   0.0000   0.3035
  10.250   1.5195   0.02075   0.01480  -0.1024  0.2482  1.0001  -3.3667   0.0000   0.0000   0.0000   0.3013
  10.500   1.5254   0.02217   0.01613  -0.1003  0.2285  1.0001  -3.4699   0.0000   0.0000   0.0000   0.2991
  10.750   1.5309   0.02365   0.01754  -0.0981  0.2089  1.0001  -3.5724   0.0000   0.0000   0.0000   0.2971
  11.000   1.5357   0.02523   0.01904  -0.0961  0.1899  1.0001  -3.6733   0.0000   0.0000   0.0000   0.2950
  11.250   1.5397   0.02689   0.02062  -0.0940  0.1715  1.0001  -3.7722   0.0000   0.0000   0.0000   0.2930
  11.500   1.5430   0.02864   0.02229  -0.0919  0.1540  1.0001  -3.8725   0.0000   0.0000   0.0000   0.2911
  11.750   1.5459   0.03045   0.02403  -0.0899  0.1377  1.0001  -3.9752   0.0000   0.0000   0.0000   0.2892
  12.000   1.5485   0.03232   0.02583  -0.0880  0.1226  1.0001  -4.0772   0.0000   0.0000   0.0000   0.2874
  12.250   1.5506   0.03425   0.02771  -0.0861  0.1089  1.0001  -4.1782   0.0000   0.0000   0.0000   0.2856
  12.500   1.5529   0.03624   0.02965  -0.0843  0.0966  1.0001  -4.2798   0.0000   0.0000   0.0000   0.2838
  12.750   1.5551   0.03829   0.03167  -0.0826  0.0861  1.0001  -4.3816   0.0000   0.0000   0.0000   0.2822
  13.000   1.5571   0.04039   0.03376  -0.0811  0.0772  1.0001  -4.4829   0.0000   0.0000   0.0000   0.2806
  13.250   1.5592   0.04256   0.03592  -0.0796  0.0699  1.0001  -4.5846   0.0000   0.0000   0.0000   0.2790
  13.500   1.5619   0.04473   0.03810  -0.0782  0.0638  1.0001  -4.6954   0.0000   0.0000   0.0000   0.2776
  13.750   1.5641   0.04701   0.04039  -0.0770  0.0587  1.0001  -4.8054   0.0000   0.0000   0.0000   0.2762
  14.250   1.5683   0.05170   0.04515  -0.0747  0.0505  1.0001  -5.0254   0.0000   0.0000   0.0000   0.2735
  14.500   1.5703   0.05414   0.04764  -0.0737  0.0473  1.0001  -5.1352   0.0000   0.0000   0.0000   0.2723
  14.750   1.5695   0.05693   0.05045  -0.0727  0.0447  1.0001  -5.2331   0.0000   0.0000   0.0000   0.2711
  15.000   1.5725   0.05937   0.05297  -0.0720  0.0421  1.0001  -5.3473   0.0000   0.0000   0.0000   0.2700
  15.250   1.5700   0.06245   0.05607  -0.0712  0.0401  1.0001  -5.4369   0.0000   0.0000   0.0000   0.2690
  15.500   1.5724   0.06502   0.05874  -0.0705  0.0381  1.0001  -5.5529   0.0000   0.0000   0.0000   0.2680
  15.750   1.5698   0.06823   0.06200  -0.0699  0.0365  1.0001  -5.6489   0.0000   0.0000   0.0000   0.2671
  16.000   1.5695   0.07122   0.06508  -0.0695  0.0349  1.0001  -5.7556   0.0000   0.0000   0.0000   0.2662
  16.250   1.5693   0.07426   0.06819  -0.0691  0.0334  1.0001  -5.8637   0.0000   0.0000   0.0000   0.2654
  16.500   1.5638   0.07800   0.07197  -0.0688  0.0322  1.0001  -5.9436   0.0000   0.0000   0.0000   0.2648
  16.750   1.5629   0.08117   0.07525  -0.0687  0.0310  1.0001  -6.0459   0.0000   0.0000   0.0000   0.2641
  17.000   1.5615   0.08447   0.07864  -0.0686  0.0299  1.0001  -6.1460   0.0000   0.0000   0.0000   0.2635
  17.250   1.5577   0.08814   0.08238  -0.0686  0.0290  1.0001  -6.2335   0.0000   0.0000   0.0000   0.2630
  17.500   1.5488   0.09253   0.08681  -0.0688  0.0283  1.0001  -6.2896   0.0000   0.0000   0.0000   0.2628
  17.750   1.5479   0.09590   0.09030  -0.0691  0.0275  1.0001  -6.3889   0.0000   0.0000   0.0000   0.2624
  18.000   1.5456   0.09949   0.09399  -0.0694  0.0266  1.0001  -6.4808   0.0000   0.0000   0.0000   0.2621
  18.250   1.5423   0.10323   0.09781  -0.0699  0.0259  1.0001  -6.5674   0.0000   0.0000   0.0000   0.2619
  18.500   1.5367   0.10730   0.10195  -0.0705  0.0252  1.0001  -6.6404   0.0000   0.0000   0.0000   0.2618
  18.750   1.5288   0.11171   0.10641  -0.0713  0.0246  1.0001  -6.7010   0.0000   0.0000   0.0000   0.2619
  19.000   1.5275   0.11530   0.11013  -0.0721  0.0240  1.0001  -6.8019   0.0000   0.0000   0.0000   0.2618
  19.250   1.5250   0.11908   0.11400  -0.0729  0.0233  1.0001  -6.8948   0.0000   0.0000   0.0000   0.2618
  19.500   1.5220   0.12293   0.11794  -0.0740  0.0227  1.0001  -6.9844   0.0000   0.0000   0.0000   0.2619
  19.750   1.5186   0.12687   0.12194  -0.0751  0.0222  1.0001  -7.0706   0.0000   0.0000   0.0000   0.2622
  20.000   1.5143   0.13089   0.12601  -0.0763  0.0218  1.0001  -7.1490   0.0000   0.0000   0.0000   0.2625


