xflr5 v6.61

 Calculated polar for: QX0026 thickness=13.65

 1 1 Reynolds number fixed          Mach number fixed         

 xtrf =   1.000 (top)        1.000 (bottom)
 Mach =   0.000     Re =     0.480 e 6     Ncrit =   9.000

  alpha     CL        CD       CDp       Cm    Top Xtr Bot Xtr   Cpmin    Chinge    XCp    
 ------- -------- --------- --------- -------- ------- ------- -------- --------- ---------
 -10.000  -0.1860   0.09524   0.09220  -0.0763  0.8405  0.0325  -1.9243   0.0000   0.0000   0.0000  -0.1957
  -9.750  -0.1789   0.09237   0.08932  -0.0777  0.8365  0.0332  -1.9000   0.0000   0.0000   0.0000  -0.2198
  -9.500  -0.1747   0.08887   0.08581  -0.0797  0.8324  0.0343  -1.9210   0.0000   0.0000   0.0000  -0.2419
  -9.250  -0.2715   0.05859   0.05558  -0.1007  0.8271  0.0270  -3.6208   0.0000   0.0000   0.0000  -0.1464
  -9.000  -0.3448   0.02964   0.02531  -0.1305  0.8200  0.0254  -4.9383   0.0000   0.0000   0.0000  -0.1495
  -8.750  -0.3319   0.02588   0.02102  -0.1315  0.8158  0.0259  -4.9552   0.0000   0.0000   0.0000  -0.1674
  -8.500  -0.3133   0.02327   0.01792  -0.1318  0.8126  0.0265  -4.9001   0.0000   0.0000   0.0000  -0.1925
  -8.250  -0.2908   0.02164   0.01588  -0.1319  0.8093  0.0271  -4.7863   0.0000   0.0000   0.0000  -0.2263
  -8.000  -0.2679   0.01994   0.01400  -0.1320  0.8059  0.0278  -4.6389   0.0000   0.0000   0.0000  -0.2664
  -7.750  -0.2422   0.01920   0.01317  -0.1321  0.8030  0.0284  -4.4366   0.0000   0.0000   0.0000  -0.3207
  -7.500  -0.2160   0.01857   0.01246  -0.1322  0.7998  0.0293  -4.2374   0.0000   0.0000   0.0000  -0.3893
  -7.250  -0.1896   0.01787   0.01160  -0.1323  0.7966  0.0305  -4.0541   0.0000   0.0000   0.0000  -0.4773
  -7.000  -0.1625   0.01729   0.01076  -0.1323  0.7938  0.0314  -3.8770   0.0000   0.0000   0.0000  -0.5970
  -6.750  -0.1369   0.01624   0.00969  -0.1324  0.7909  0.0324  -3.7142   0.0000   0.0000   0.0000  -0.7547
  -6.500  -0.1098   0.01573   0.00916  -0.1325  0.7876  0.0335  -3.5380   0.0000   0.0000   0.0000  -1.0008
  -6.250  -0.0824   0.01523   0.00854  -0.1325  0.7849  0.0348  -3.3718   0.0000   0.0000   0.0000  -1.4154
  -6.000  -0.0547   0.01474   0.00790  -0.1326  0.7824  0.0361  -3.2107   0.0000   0.0000   0.0000  -2.2546
  -5.750  -0.0279   0.01421   0.00743  -0.1327  0.7790  0.0377  -3.0364   0.0000   0.0000   0.0000  -4.6631
  -5.500  -0.0000   0.01387   0.00702  -0.1328  0.7761  0.0395  -2.8669   0.0000   0.0000   0.0000  -9323.2651
  -5.250   0.0277   0.01340   0.00646  -0.1329  0.7736  0.0413  -2.7079   0.0000   0.0000   0.0000   5.1801
  -5.000   0.0553   0.01303   0.00612  -0.1330  0.7706  0.0433  -2.5409   0.0000   0.0000   0.0000   2.7205
  -4.750   0.0835   0.01280   0.00581  -0.1331  0.7674  0.0457  -2.3944   0.0000   0.0000   0.0000   1.8847
  -4.500   0.1112   0.01239   0.00543  -0.1332  0.7648  0.0487  -2.2468   0.0000   0.0000   0.0000   1.4766
  -4.250   0.1395   0.01210   0.00509  -0.1333  0.7622  0.0519  -2.1046   0.0000   0.0000   0.0000   1.2275
  -4.000   0.1674   0.01184   0.00484  -0.1335  0.7588  0.0556  -1.9610   0.0000   0.0000   0.0000   1.0642
  -3.750   0.1956   0.01156   0.00457  -0.1336  0.7558  0.0604  -1.8191   0.0000   0.0000   0.0000   0.9465
  -3.500   0.2243   0.01133   0.00431  -0.1338  0.7534  0.0663  -1.6830   0.0000   0.0000   0.0000   0.8575
  -3.250   0.2523   0.01111   0.00412  -0.1340  0.7500  0.0739  -1.5591   0.0000   0.0000   0.0000   0.7896
  -3.000   0.2806   0.01087   0.00392  -0.1341  0.7467  0.0850  -1.4358   0.0000   0.0000   0.0000   0.7351
  -2.750   0.3093   0.01063   0.00373  -0.1344  0.7440  0.1032  -1.3136   0.0000   0.0000   0.0000   0.6902
  -2.500   0.3375   0.01038   0.00361  -0.1346  0.7410  0.1357  -1.1938   0.0000   0.0000   0.0000   0.6535
  -2.250   0.3655   0.01013   0.00353  -0.1348  0.7374  0.1812  -1.0843   0.0000   0.0000   0.0000   0.6226
  -2.000   0.3941   0.00994   0.00345  -0.1351  0.7345  0.2275  -0.9758   0.0000   0.0000   0.0000   0.5957
  -1.750   0.4227   0.00978   0.00340  -0.1353  0.7316  0.2714  -0.8695   0.0000   0.0000   0.0000   0.5724
  -1.500   0.4506   0.00962   0.00338  -0.1355  0.7279  0.3163  -0.7847   0.0000   0.0000   0.0000   0.5523
  -1.250   0.4791   0.00945   0.00334  -0.1357  0.7247  0.3673  -0.8028   0.0000   0.0000   0.0000   0.5343
  -1.000   0.5077   0.00928   0.00331  -0.1360  0.7219  0.4283  -0.8213   0.0000   0.0000   0.0000   0.5183
  -0.750   0.5350   0.00907   0.00335  -0.1360  0.7179  0.5019  -0.8395   0.0000   0.0000   0.0000   0.5042
  -0.500   0.5627   0.00885   0.00336  -0.1361  0.7145  0.5883  -0.8585   0.0000   0.0000   0.0000   0.4913
  -0.250   0.5898   0.00864   0.00340  -0.1359  0.7116  0.6839  -0.8777   0.0000   0.0000   0.0000   0.4795
   0.250   0.6392   0.00827   0.00349  -0.1341  0.7039  0.8408  -0.9151   0.0000   0.0000   0.0000   0.4581
   0.500   0.6653   0.00809   0.00347  -0.1332  0.7007  0.9451  -0.9355   0.0000   0.0000   0.0000   0.4481
   0.750   0.7044   0.00806   0.00343  -0.1356  0.6963  1.0001  -0.9632   0.0000   0.0000   0.0000   0.4402
   1.000   0.7330   0.00811   0.00340  -0.1358  0.6927  1.0001  -0.9859   0.0000   0.0000   0.0000   0.4326
   1.250   0.7609   0.00817   0.00342  -0.1359  0.6886  1.0001  -1.0087   0.0000   0.0000   0.0000   0.4255
   1.500   0.7890   0.00821   0.00343  -0.1360  0.6842  1.0001  -1.0322   0.0000   0.0000   0.0000   0.4190
   1.750   0.8178   0.00827   0.00342  -0.1362  0.6806  1.0001  -1.0570   0.0000   0.0000   0.0000   0.4128
   2.000   0.8450   0.00832   0.00348  -0.1362  0.6754  1.0001  -1.0815   0.0000   0.0000   0.0000   0.4071
   2.250   0.8735   0.00838   0.00347  -0.1363  0.6712  1.0001  -1.1076   0.0000   0.0000   0.0000   0.4017
   2.500   0.9009   0.00844   0.00354  -0.1363  0.6660  1.0001  -1.1338   0.0000   0.0000   0.0000   0.3966
   2.750   0.9290   0.00849   0.00356  -0.1364  0.6612  1.0001  -1.1616   0.0000   0.0000   0.0000   0.3918
   3.000   0.9564   0.00856   0.00362  -0.1363  0.6557  1.0001  -1.1897   0.0000   0.0000   0.0000   0.3872
   3.250   0.9841   0.00861   0.00365  -0.1363  0.6504  1.0001  -1.2195   0.0000   0.0000   0.0000   0.3829
   3.500   1.0112   0.00868   0.00373  -0.1363  0.6443  1.0001  -1.2500   0.0000   0.0000   0.0000   0.3788
   3.750   1.0389   0.00876   0.00376  -0.1363  0.6387  1.0001  -1.2824   0.0000   0.0000   0.0000   0.3749
   4.000   1.0654   0.00883   0.00386  -0.1361  0.6315  1.0001  -1.3154   0.0000   0.0000   0.0000   0.3711
   4.250   1.0923   0.00892   0.00394  -0.1360  0.6246  1.0001  -1.3505   0.0000   0.0000   0.0000   0.3675
   4.500   1.1191   0.00901   0.00400  -0.1358  0.6175  1.0001  -1.3875   0.0000   0.0000   0.0000   0.3641
   4.750   1.1452   0.00910   0.00412  -0.1356  0.6091  1.0001  -1.4260   0.0000   0.0000   0.0000   0.3608
   5.000   1.1713   0.00922   0.00424  -0.1353  0.6004  1.0001  -1.4671   0.0000   0.0000   0.0000   0.3576
   5.250   1.1970   0.00934   0.00436  -0.1350  0.5912  1.0001  -1.5111   0.0000   0.0000   0.0000   0.3545
   5.500   1.2224   0.00948   0.00449  -0.1346  0.5813  1.0001  -1.5593   0.0000   0.0000   0.0000   0.3515
   5.750   1.2473   0.00964   0.00465  -0.1341  0.5704  1.0001  -1.6155   0.0000   0.0000   0.0000   0.3486
   6.000   1.2717   0.00982   0.00482  -0.1336  0.5585  1.0001  -1.6878   0.0000   0.0000   0.0000   0.3457
   6.250   1.2954   0.01003   0.00500  -0.1329  0.5454  1.0001  -1.7672   0.0000   0.0000   0.0000   0.3429
   6.500   1.3180   0.01028   0.00522  -0.1321  0.5311  1.0001  -1.8501   0.0000   0.0000   0.0000   0.3402
   6.750   1.3400   0.01056   0.00547  -0.1311  0.5150  1.0001  -1.9371   0.0000   0.0000   0.0000   0.3375
   7.000   1.3602   0.01092   0.00575  -0.1299  0.4977  1.0001  -2.0271   0.0000   0.0000   0.0000   0.3347
   7.250   1.3796   0.01130   0.00609  -0.1285  0.4788  1.0001  -2.1234   0.0000   0.0000   0.0000   0.3320
   7.500   1.3977   0.01173   0.00646  -0.1270  0.4600  1.0001  -2.2247   0.0000   0.0000   0.0000   0.3293
   7.750   1.4144   0.01221   0.00686  -0.1252  0.4419  1.0001  -2.3261   0.0000   0.0000   0.0000   0.3266
   8.000   1.4299   0.01270   0.00730  -0.1232  0.4239  1.0001  -2.4319   0.0000   0.0000   0.0000   0.3238
   8.250   1.4428   0.01322   0.00778  -0.1207  0.4066  1.0001  -2.5330   0.0000   0.0000   0.0000   0.3210
   8.500   1.4547   0.01385   0.00835  -0.1182  0.3891  1.0001  -2.6326   0.0000   0.0000   0.0000   0.3182
   8.750   1.4668   0.01452   0.00897  -0.1159  0.3708  1.0001  -2.7397   0.0000   0.0000   0.0000   0.3155
   9.000   1.4777   0.01529   0.00969  -0.1136  0.3522  1.0001  -2.8454   0.0000   0.0000   0.0000   0.3129
   9.250   1.4875   0.01618   0.01051  -0.1112  0.3333  1.0001  -2.9491   0.0000   0.0000   0.0000   0.3104
   9.500   1.4964   0.01718   0.01145  -0.1089  0.3138  1.0001  -3.0512   0.0000   0.0000   0.0000   0.3080
   9.750   1.5045   0.01829   0.01248  -0.1066  0.2940  1.0001  -3.1523   0.0000   0.0000   0.0000   0.3056
  10.000   1.5120   0.01950   0.01362  -0.1044  0.2740  1.0001  -3.2586   0.0000   0.0000   0.0000   0.3034
  10.250   1.5187   0.02082   0.01487  -0.1022  0.2537  1.0001  -3.3632   0.0000   0.0000   0.0000   0.3012
  10.500   1.5247   0.02224   0.01620  -0.1001  0.2339  1.0001  -3.4666   0.0000   0.0000   0.0000   0.2991
  10.750   1.5298   0.02375   0.01763  -0.0979  0.2142  1.0001  -3.5678   0.0000   0.0000   0.0000   0.2970
  11.000   1.5342   0.02535   0.01915  -0.0958  0.1951  1.0001  -3.6672   0.0000   0.0000   0.0000   0.2949
  11.250   1.5379   0.02704   0.02076  -0.0937  0.1767  1.0001  -3.7649   0.0000   0.0000   0.0000   0.2929
  11.500   1.5411   0.02880   0.02244  -0.0917  0.1590  1.0001  -3.8642   0.0000   0.0000   0.0000   0.2910
  11.750   1.5440   0.03061   0.02418  -0.0897  0.1423  1.0001  -3.9671   0.0000   0.0000   0.0000   0.2891
  12.000   1.5465   0.03249   0.02599  -0.0877  0.1268  1.0001  -4.0684   0.0000   0.0000   0.0000   0.2873
  12.250   1.5484   0.03444   0.02789  -0.0858  0.1127  1.0001  -4.1684   0.0000   0.0000   0.0000   0.2855
  12.500   1.5501   0.03648   0.02988  -0.0840  0.1000  1.0001  -4.2678   0.0000   0.0000   0.0000   0.2837
  12.750   1.5519   0.03856   0.03193  -0.0823  0.0889  1.0001  -4.3679   0.0000   0.0000   0.0000   0.2821
  13.000   1.5541   0.04066   0.03401  -0.0808  0.0796  1.0001  -4.4695   0.0000   0.0000   0.0000   0.2805
  13.250   1.5561   0.04285   0.03619  -0.0793  0.0719  1.0001  -4.5704   0.0000   0.0000   0.0000   0.2790
  13.500   1.5580   0.04510   0.03844  -0.0779  0.0656  1.0001  -4.6769   0.0000   0.0000   0.0000   0.2775
  13.750   1.5601   0.04740   0.04075  -0.0767  0.0603  1.0001  -4.7858   0.0000   0.0000   0.0000   0.2761
  14.000   1.5622   0.04972   0.04311  -0.0755  0.0557  1.0001  -4.8951   0.0000   0.0000   0.0000   0.2747
  14.250   1.5640   0.05214   0.04556  -0.0744  0.0519  1.0001  -5.0035   0.0000   0.0000   0.0000   0.2735
  14.500   1.5645   0.05474   0.04820  -0.0734  0.0487  1.0001  -5.1065   0.0000   0.0000   0.0000   0.2722
  14.750   1.5660   0.05731   0.05081  -0.0725  0.0457  1.0001  -5.2138   0.0000   0.0000   0.0000   0.2711
  15.000   1.5667   0.06000   0.05356  -0.0717  0.0432  1.0001  -5.3172   0.0000   0.0000   0.0000   0.2700
  15.250   1.5662   0.06286   0.05647  -0.0709  0.0411  1.0001  -5.4156   0.0000   0.0000   0.0000   0.2689
  15.500   1.5655   0.06579   0.05948  -0.0703  0.0391  1.0001  -5.5145   0.0000   0.0000   0.0000   0.2680
  15.750   1.5656   0.06871   0.06246  -0.0697  0.0373  1.0001  -5.6232   0.0000   0.0000   0.0000   0.2670
  16.000   1.5609   0.07224   0.06604  -0.0692  0.0359  1.0001  -5.7074   0.0000   0.0000   0.0000   0.2663
  16.250   1.5624   0.07509   0.06900  -0.0689  0.0343  1.0001  -5.8220   0.0000   0.0000   0.0000   0.2655
  16.500   1.5603   0.07839   0.07236  -0.0687  0.0330  1.0001  -5.9205   0.0000   0.0000   0.0000   0.2648
  16.750   1.5534   0.08234   0.07636  -0.0685  0.0319  1.0001  -5.9905   0.0000   0.0000   0.0000   0.2643
  17.000   1.5536   0.08546   0.07959  -0.0684  0.0308  1.0001  -6.0972   0.0000   0.0000   0.0000   0.2636
  17.250   1.5514   0.08892   0.08315  -0.0685  0.0297  1.0001  -6.1921   0.0000   0.0000   0.0000   0.2631
  17.500   1.5468   0.09276   0.08705  -0.0687  0.0289  1.0001  -6.2732   0.0000   0.0000   0.0000   0.2628
  17.750   1.5386   0.09710   0.09144  -0.0690  0.0282  1.0001  -6.3310   0.0000   0.0000   0.0000   0.2626
  18.000   1.5377   0.10050   0.09497  -0.0694  0.0273  1.0001  -6.4283   0.0000   0.0000   0.0000   0.2623
  18.250   1.5351   0.10414   0.09870  -0.0698  0.0265  1.0001  -6.5168   0.0000   0.0000   0.0000   0.2620
  18.500   1.5318   0.10792   0.10256  -0.0704  0.0258  1.0001  -6.6016   0.0000   0.0000   0.0000   0.2619
  18.750   1.5266   0.11199   0.10668  -0.0712  0.0252  1.0001  -6.6808   0.0000   0.0000   0.0000   0.2619
  19.000   1.5203   0.11620   0.11094  -0.0720  0.0246  1.0001  -6.7491   0.0000   0.0000   0.0000   0.2620
  19.250   1.5188   0.11984   0.11471  -0.0729  0.0239  1.0001  -6.8468   0.0000   0.0000   0.0000   0.2620
  19.500   1.5166   0.12360   0.11857  -0.0739  0.0233  1.0001  -6.9390   0.0000   0.0000   0.0000   0.2621
  19.750   1.5140   0.12741   0.12246  -0.0750  0.0227  1.0001  -7.0293   0.0000   0.0000   0.0000   0.2623
  20.000   1.5112   0.13124   0.12636  -0.0762  0.0222  1.0001  -7.1172   0.0000   0.0000   0.0000   0.2625


