xflr5 v6.61

 Calculated polar for: QX0026 thickness=13.65

 1 1 Reynolds number fixed          Mach number fixed         

 xtrf =   1.000 (top)        1.000 (bottom)
 Mach =   0.000     Re =     0.140 e 6     Ncrit =   9.000

  alpha     CL        CD       CDp       Cm    Top Xtr Bot Xtr   Cpmin    Chinge    XCp    
 ------- -------- --------- --------- -------- ------- ------- -------- --------- ---------
 -10.000  -0.1482   0.10623   0.10200  -0.0860  0.9664  0.0782  -1.4893   0.0000   0.0000   0.0000  -0.3752
  -9.750  -0.1413   0.10235   0.09812  -0.0916  0.9617  0.0818  -1.5446   0.0000   0.0000   0.0000  -0.4445
  -9.500  -0.1291   0.09830   0.09406  -0.0950  0.9573  0.0834  -1.5413   0.0000   0.0000   0.0000  -0.5352
  -9.250  -0.1108   0.09521   0.09095  -0.0968  0.9532  0.0865  -1.4757   0.0000   0.0000   0.0000  -0.6803
  -6.500  -0.1080   0.04329   0.03758  -0.1387  0.8782  0.0757  -2.5295   0.0000   0.0000   0.0000  -1.0782
  -6.250  -0.0814   0.04322   0.03775  -0.1386  0.8750  0.0811  -2.3200   0.0000   0.0000   0.0000  -1.5080
  -6.000  -0.0757   0.03774   0.03159  -0.1383  0.8689  0.0730  -2.4624   0.0000   0.0000   0.0000  -1.6348
  -5.750  -0.0528   0.03333   0.02634  -0.1392  0.8658  0.0705  -2.5328   0.0000   0.0000   0.0000  -2.4704
  -5.500  -0.0380   0.03217   0.02492  -0.1378  0.8600  0.0717  -2.4781   0.0000   0.0000   0.0000  -3.4862
  -5.250  -0.0080   0.03034   0.02257  -0.1386  0.8575  0.0746  -2.4071   0.0000   0.0000   0.0000  -17.5190
  -5.000   0.0085   0.02939   0.02131  -0.1371  0.8518  0.0763  -2.3464   0.0000   0.0000   0.0000  16.8482
  -4.750   0.0393   0.02826   0.02011  -0.1378  0.8492  0.0791  -2.2201   0.0000   0.0000   0.0000   3.8491
  -4.500   0.0587   0.02775   0.01930  -0.1366  0.8440  0.0829  -2.1368   0.0000   0.0000   0.0000   2.6390
  -4.250   0.0880   0.02697   0.01850  -0.1370  0.8409  0.0875  -2.0227   0.0000   0.0000   0.0000   1.8460
  -4.000   0.1223   0.02597   0.01742  -0.1380  0.8391  0.0931  -1.9054   0.0000   0.0000   0.0000   1.4049
  -3.750   0.1372   0.02597   0.01737  -0.1362  0.8325  0.0985  -1.8243   0.0000   0.0000   0.0000   1.2650
  -3.500   0.1710   0.02517   0.01658  -0.1371  0.8305  0.1069  -1.6996   0.0000   0.0000   0.0000   1.0685
  -3.250   0.1867   0.02527   0.01672  -0.1355  0.8241  0.1151  -1.6119   0.0000   0.0000   0.0000   0.9902
  -3.000   0.2197   0.02462   0.01610  -0.1362  0.8218  0.1298  -1.5007   0.0000   0.0000   0.0000   0.8816
  -2.750   0.2369   0.02474   0.01631  -0.1349  0.8156  0.1456  -1.4195   0.0000   0.0000   0.0000   0.8294
  -2.500   0.2688   0.02412   0.01591  -0.1357  0.8129  0.1784  -1.3084   0.0000   0.0000   0.0000   0.7627
  -2.000   0.3183   0.02365   0.01603  -0.1353  0.8040  0.3111  -1.1152   0.0000   0.0000   0.0000   0.6807
  -1.750   0.3523   0.02305   0.01574  -0.1362  0.8021  0.4007  -1.0002   0.0000   0.0000   0.0000   0.6410
  -1.500   0.3668   0.02344   0.01643  -0.1346  0.7949  0.4738  -0.9239   0.0000   0.0000   0.0000   0.6205
  -1.250   0.3978   0.02283   0.01624  -0.1344  0.7929  0.5957  -0.8169   0.0000   0.0000   0.0000   0.5907
  -1.000   0.4085   0.02323   0.01701  -0.1315  0.7855  0.7054  -0.7542   0.0000   0.0000   0.0000   0.5740
  -0.750   0.4307   0.02264   0.01677  -0.1284  0.7833  0.8535  -0.7460   0.0000   0.0000   0.0000   0.5498
  -0.500   0.4584   0.02311   0.01723  -0.1290  0.7763  1.0001  -0.7625   0.0000   0.0000   0.0000   0.5323
  -0.250   0.4944   0.02294   0.01686  -0.1301  0.7740  1.0001  -0.7874   0.0000   0.0000   0.0000   0.5135
   0.250   0.5473   0.02345   0.01711  -0.1300  0.7642  1.0001  -0.8248   0.0000   0.0000   0.0000   0.4868
   0.750   0.6004   0.02391   0.01736  -0.1297  0.7543  1.0001  -0.8647   0.0000   0.0000   0.0000   0.4645
   1.250   0.6538   0.02430   0.01758  -0.1294  0.7443  1.0001  -0.9071   0.0000   0.0000   0.0000   0.4455
   1.750   0.7078   0.02459   0.01775  -0.1290  0.7343  1.0001  -0.9524   0.0000   0.0000   0.0000   0.4291
   2.250   0.7624   0.02479   0.01785  -0.1286  0.7241  1.0001  -1.0011   0.0000   0.0000   0.0000   0.4148
   2.500   0.8003   0.02426   0.01726  -0.1296  0.7223  1.0001  -1.0352   0.0000   0.0000   0.0000   0.4077
   2.750   0.8179   0.02486   0.01785  -0.1282  0.7139  1.0001  -1.0537   0.0000   0.0000   0.0000   0.4022
   3.000   0.8555   0.02431   0.01726  -0.1292  0.7118  1.0001  -1.0895   0.0000   0.0000   0.0000   0.3961
   3.250   0.8743   0.02480   0.01776  -0.1279  0.7036  1.0001  -1.1107   0.0000   0.0000   0.0000   0.3911
   3.500   0.9124   0.02419   0.01710  -0.1289  0.7014  1.0001  -1.1493   0.0000   0.0000   0.0000   0.3857
   3.750   0.9319   0.02460   0.01753  -0.1277  0.6932  1.0001  -1.1733   0.0000   0.0000   0.0000   0.3811
   4.250   0.9909   0.02423   0.01717  -0.1276  0.6827  1.0001  -1.2427   0.0000   0.0000   0.0000   0.3722
   4.750   1.0510   0.02373   0.01669  -0.1275  0.6718  1.0001  -1.3199   0.0000   0.0000   0.0000   0.3641
   5.000   1.0731   0.02389   0.01689  -0.1265  0.6637  1.0001  -1.3539   0.0000   0.0000   0.0000   0.3603
   5.500   1.1348   0.02319   0.01623  -0.1266  0.6519  1.0001  -1.4469   0.0000   0.0000   0.0000   0.3533
   5.750   1.1614   0.02305   0.01613  -0.1261  0.6445  1.0001  -1.4948   0.0000   0.0000   0.0000   0.3500
   6.000   1.1989   0.02232   0.01540  -0.1270  0.6395  1.0001  -1.5625   0.0000   0.0000   0.0000   0.3470
   6.250   1.2223   0.02230   0.01544  -0.1261  0.6305  1.0001  -1.6264   0.0000   0.0000   0.0000   0.3438
   6.500   1.2483   0.02215   0.01533  -0.1255  0.6218  1.0001  -1.7050   0.0000   0.0000   0.0000   0.3408
   6.750   1.2773   0.02184   0.01506  -0.1253  0.6135  1.0001  -1.7953   0.0000   0.0000   0.0000   0.3380
   7.000   1.3089   0.02141   0.01464  -0.1254  0.6051  1.0001  -1.8976   0.0000   0.0000   0.0000   0.3353
   7.250   1.3381   0.02110   0.01434  -0.1252  0.5955  1.0001  -2.0038   0.0000   0.0000   0.0000   0.3327
   7.500   1.3609   0.02106   0.01436  -0.1241  0.5840  1.0001  -2.1058   0.0000   0.0000   0.0000   0.3299
   7.750   1.3815   0.02111   0.01446  -0.1227  0.5713  1.0001  -2.2104   0.0000   0.0000   0.0000   0.3271
   8.000   1.4023   0.02113   0.01452  -0.1213  0.5579  1.0001  -2.3206   0.0000   0.0000   0.0000   0.3244
   8.250   1.4246   0.02110   0.01449  -0.1200  0.5439  1.0001  -2.4412   0.0000   0.0000   0.0000   0.3218
   8.500   1.4443   0.02118   0.01458  -0.1184  0.5287  1.0001  -2.5597   0.0000   0.0000   0.0000   0.3191
   8.750   1.4599   0.02143   0.01484  -0.1163  0.5119  1.0001  -2.6692   0.0000   0.0000   0.0000   0.3163
   9.000   1.4755   0.02172   0.01511  -0.1141  0.4949  1.0001  -2.7859   0.0000   0.0000   0.0000   0.3136
   9.250   1.4880   0.02211   0.01548  -0.1115  0.4775  1.0001  -2.8969   0.0000   0.0000   0.0000   0.3108
   9.500   1.4964   0.02270   0.01606  -0.1084  0.4599  1.0001  -2.9972   0.0000   0.0000   0.0000   0.3079
   9.750   1.5064   0.02332   0.01663  -0.1057  0.4423  1.0001  -3.1034   0.0000   0.0000   0.0000   0.3052
  10.000   1.5118   0.02416   0.01747  -0.1025  0.4241  1.0001  -3.1973   0.0000   0.0000   0.0000   0.3024
  10.250   1.5166   0.02512   0.01842  -0.0995  0.4059  1.0001  -3.2955   0.0000   0.0000   0.0000   0.2997
  10.500   1.5208   0.02619   0.01946  -0.0965  0.3877  1.0001  -3.3927   0.0000   0.0000   0.0000   0.2971
  10.750   1.5232   0.02743   0.02067  -0.0935  0.3691  1.0001  -3.4841   0.0000   0.0000   0.0000   0.2946
  11.000   1.5239   0.02886   0.02209  -0.0906  0.3500  1.0001  -3.5704   0.0000   0.0000   0.0000   0.2921
  11.250   1.5239   0.03043   0.02364  -0.0878  0.3308  1.0001  -3.6542   0.0000   0.0000   0.0000   0.2898
  11.500   1.5228   0.03217   0.02535  -0.0851  0.3114  1.0001  -3.7345   0.0000   0.0000   0.0000   0.2876
  11.750   1.5204   0.03409   0.02724  -0.0825  0.2917  1.0001  -3.8106   0.0000   0.0000   0.0000   0.2854
  12.000   1.5170   0.03618   0.02929  -0.0799  0.2718  1.0001  -3.8878   0.0000   0.0000   0.0000   0.2834
  12.250   1.5124   0.03848   0.03153  -0.0775  0.2516  1.0001  -3.9601   0.0000   0.0000   0.0000   0.2814
  12.500   1.5065   0.04096   0.03395  -0.0752  0.2316  1.0001  -4.0269   0.0000   0.0000   0.0000   0.2796
  12.750   1.4996   0.04366   0.03657  -0.0730  0.2120  1.0001  -4.0891   0.0000   0.0000   0.0000   0.2778
  13.000   1.4921   0.04657   0.03938  -0.0710  0.1932  1.0001  -4.1473   0.0000   0.0000   0.0000   0.2762
  13.250   1.4845   0.04961   0.04235  -0.0691  0.1752  1.0001  -4.2033   0.0000   0.0000   0.0000   0.2746
  13.500   1.4769   0.05279   0.04544  -0.0675  0.1589  1.0001  -4.2578   0.0000   0.0000   0.0000   0.2732
  13.750   1.4698   0.05604   0.04862  -0.0660  0.1445  1.0001  -4.3122   0.0000   0.0000   0.0000   0.2719
  14.000   1.4641   0.05924   0.05178  -0.0647  0.1315  1.0001  -4.3695   0.0000   0.0000   0.0000   0.2707
  14.250   1.4587   0.06245   0.05489  -0.0635  0.1213  1.0001  -4.4306   0.0000   0.0000   0.0000   0.2695
  14.500   1.4556   0.06551   0.05796  -0.0625  0.1116  1.0001  -4.5012   0.0000   0.0000   0.0000   0.2683
  14.750   1.4533   0.06851   0.06094  -0.0615  0.1036  1.0001  -4.5759   0.0000   0.0000   0.0000   0.2672
  15.000   1.4523   0.07138   0.06379  -0.0607  0.0967  1.0001  -4.6551   0.0000   0.0000   0.0000   0.2661
  15.250   1.4527   0.07410   0.06650  -0.0598  0.0906  1.0001  -4.7391   0.0000   0.0000   0.0000   0.2650
  15.500   1.4542   0.07671   0.06913  -0.0590  0.0851  1.0001  -4.8276   0.0000   0.0000   0.0000   0.2638
  15.750   1.4571   0.07914   0.07154  -0.0582  0.0803  1.0001  -4.9229   0.0000   0.0000   0.0000   0.2627
  16.000   1.4632   0.08108   0.07339  -0.0573  0.0759  1.0001  -5.0350   0.0000   0.0000   0.0000   0.2613
  16.250   1.4657   0.08374   0.07619  -0.0567  0.0719  1.0001  -5.1266   0.0000   0.0000   0.0000   0.2604
  16.500   1.4713   0.08587   0.07836  -0.0560  0.0684  1.0001  -5.2408   0.0000   0.0000   0.0000   0.2592
  16.750   1.4828   0.08707   0.07944  -0.0549  0.0649  1.0001  -5.3936   0.0000   0.0000   0.0000   0.2576
  17.000   1.4833   0.09010   0.08271  -0.0546  0.0622  1.0001  -5.4721   0.0000   0.0000   0.0000   0.2568
  17.250   1.4990   0.09080   0.08327  -0.0534  0.0593  1.0001  -5.6457   0.0000   0.0000   0.0000   0.2552
  17.500   1.4970   0.09421   0.08696  -0.0534  0.0572  1.0001  -5.7090   0.0000   0.0000   0.0000   0.2546
  17.750   1.5087   0.09556   0.08826  -0.0527  0.0548  1.0001  -5.8634   0.0000   0.0000   0.0000   0.2533
  18.000   1.5089   0.09869   0.09161  -0.0525  0.0531  1.0001  -5.9373   0.0000   0.0000   0.0000   0.2526
  18.250   1.5104   0.10163   0.09472  -0.0525  0.0514  1.0001  -6.0210   0.0000   0.0000   0.0000   0.2520
  18.500   1.5318   0.10175   0.09470  -0.0512  0.0494  1.0001  -6.2438   0.0000   0.0000   0.0000   0.2501
  18.750   1.5189   0.10674   0.10005  -0.0522  0.0486  1.0001  -6.2427   0.0000   0.0000   0.0000   0.2504
  19.000   1.5096   0.11135   0.10494  -0.0532  0.0476  1.0001  -6.2634   0.0000   0.0000   0.0000   0.2507
  19.250   1.5075   0.11491   0.10867  -0.0539  0.0464  1.0001  -6.3341   0.0000   0.0000   0.0000   0.2506
  19.500   1.5270   0.11517   0.10879  -0.0529  0.0447  1.0001  -6.5569   0.0000   0.0000   0.0000   0.2489
  19.750   1.5076   0.12146   0.11544  -0.0553  0.0443  1.0001  -6.5029   0.0000   0.0000   0.0000   0.2503
  20.000   1.4886   0.12798   0.12228  -0.0580  0.0439  1.0001  -6.4444   0.0000   0.0000   0.0000   0.2519


