xflr5 v6.61

 Calculated polar for: QX0026 thickness=13.65

 1 1 Reynolds number fixed          Mach number fixed         

 xtrf =   1.000 (top)        1.000 (bottom)
 Mach =   0.000     Re =     0.660 e 6     Ncrit =   9.000

  alpha     CL        CD       CDp       Cm    Top Xtr Bot Xtr   Cpmin    Chinge    XCp    
 ------- -------- --------- --------- -------- ------- ------- -------- --------- ---------
 -10.000  -0.3493   0.05831   0.05558  -0.0962  0.8179  0.0208  -4.4616   0.0000   0.0000   0.0000  -0.0484
  -9.750  -0.3326   0.05713   0.05439  -0.0980  0.8138  0.0211  -4.2713   0.0000   0.0000   0.0000  -0.0677
  -9.500  -0.3101   0.05738   0.05462  -0.0986  0.8102  0.0214  -4.0019   0.0000   0.0000   0.0000  -0.0915
  -9.000  -0.3778   0.02000   0.01473  -0.1303  0.8000  0.0223  -5.6287   0.0000   0.0000   0.0000  -0.1150
  -8.750  -0.3531   0.01900   0.01352  -0.1304  0.7965  0.0229  -5.4444   0.0000   0.0000   0.0000  -0.1398
  -8.500  -0.3274   0.01827   0.01258  -0.1305  0.7937  0.0233  -5.2474   0.0000   0.0000   0.0000  -0.1698
  -8.250  -0.3037   0.01691   0.01110  -0.1305  0.7907  0.0239  -5.0721   0.0000   0.0000   0.0000  -0.2018
  -8.000  -0.2773   0.01635   0.01050  -0.1307  0.7874  0.0246  -4.8506   0.0000   0.0000   0.0000  -0.2442
  -7.750  -0.2505   0.01585   0.00992  -0.1308  0.7845  0.0252  -4.6339   0.0000   0.0000   0.0000  -0.2965
  -7.500  -0.2235   0.01534   0.00930  -0.1309  0.7820  0.0260  -4.4261   0.0000   0.0000   0.0000  -0.3617
  -7.250  -0.1961   0.01491   0.00876  -0.1309  0.7787  0.0269  -4.2192   0.0000   0.0000   0.0000  -0.4464
  -7.000  -0.1696   0.01418   0.00795  -0.1310  0.7758  0.0278  -4.0351   0.0000   0.0000   0.0000  -0.5538
  -6.750  -0.1422   0.01379   0.00752  -0.1311  0.7733  0.0288  -3.8401   0.0000   0.0000   0.0000  -0.7080
  -6.500  -0.1146   0.01342   0.00711  -0.1313  0.7704  0.0298  -3.6538   0.0000   0.0000   0.0000  -0.9384
  -6.250  -0.0867   0.01306   0.00668  -0.1314  0.7674  0.0309  -3.4736   0.0000   0.0000   0.0000  -1.3191
  -6.000  -0.0594   0.01254   0.00609  -0.1315  0.7647  0.0321  -3.3015   0.0000   0.0000   0.0000  -2.0393
  -5.750  -0.0314   0.01224   0.00577  -0.1316  0.7623  0.0334  -3.1161   0.0000   0.0000   0.0000  -4.0754
  -5.500  -0.0032   0.01200   0.00550  -0.1318  0.7592  0.0351  -2.9358   0.0000   0.0000   0.0000  -42.6433
  -5.250   0.0247   0.01161   0.00507  -0.1319  0.7563  0.0368  -2.7651   0.0000   0.0000   0.0000   5.7456
  -5.000   0.0530   0.01136   0.00480  -0.1321  0.7539  0.0387  -2.5931   0.0000   0.0000   0.0000   2.8083
  -4.750   0.0816   0.01117   0.00455  -0.1322  0.7511  0.0406  -2.4389   0.0000   0.0000   0.0000   1.9125
  -4.500   0.1096   0.01083   0.00424  -0.1324  0.7480  0.0433  -2.2865   0.0000   0.0000   0.0000   1.4874
  -4.250   0.1381   0.01063   0.00399  -0.1326  0.7452  0.0463  -2.1354   0.0000   0.0000   0.0000   1.2311
  -3.750   0.1951   0.01018   0.00355  -0.1330  0.7396  0.0537  -1.8403   0.0000   0.0000   0.0000   0.9447
  -3.500   0.2237   0.00999   0.00335  -0.1332  0.7365  0.0590  -1.7008   0.0000   0.0000   0.0000   0.8558
  -3.250   0.2524   0.00981   0.00317  -0.1334  0.7338  0.0657  -1.5710   0.0000   0.0000   0.0000   0.7869
  -3.000   0.2811   0.00964   0.00302  -0.1336  0.7308  0.0750  -1.4442   0.0000   0.0000   0.0000   0.7322
  -2.750   0.3096   0.00944   0.00288  -0.1338  0.7275  0.0897  -1.3196   0.0000   0.0000   0.0000   0.6878
  -2.500   0.3382   0.00922   0.00275  -0.1340  0.7246  0.1146  -1.1968   0.0000   0.0000   0.0000   0.6509
  -2.250   0.3668   0.00902   0.00265  -0.1343  0.7218  0.1510  -1.0847   0.0000   0.0000   0.0000   0.6198
  -2.000   0.3951   0.00882   0.00260  -0.1346  0.7183  0.1924  -0.9763   0.0000   0.0000   0.0000   0.5933
  -1.750   0.4237   0.00866   0.00255  -0.1348  0.7151  0.2329  -0.8695   0.0000   0.0000   0.0000   0.5703
  -1.500   0.4525   0.00853   0.00250  -0.1351  0.7124  0.2724  -0.7881   0.0000   0.0000   0.0000   0.5500
  -1.250   0.4809   0.00838   0.00249  -0.1353  0.7088  0.3144  -0.8058   0.0000   0.0000   0.0000   0.5323
  -1.000   0.5094   0.00823   0.00247  -0.1356  0.7053  0.3624  -0.8242   0.0000   0.0000   0.0000   0.5165
  -0.750   0.5380   0.00808   0.00244  -0.1358  0.7024  0.4191  -0.8432   0.0000   0.0000   0.0000   0.5023
  -0.500   0.5661   0.00790   0.00247  -0.1360  0.6988  0.4878  -0.8622   0.0000   0.0000   0.0000   0.4897
  -0.250   0.5940   0.00770   0.00249  -0.1361  0.6951  0.5688  -0.8818   0.0000   0.0000   0.0000   0.4782
   0.000   0.6216   0.00750   0.00253  -0.1361  0.6919  0.6626  -0.9018   0.0000   0.0000   0.0000   0.4676
   0.250   0.6485   0.00735   0.00259  -0.1359  0.6881  0.7370  -0.9218   0.0000   0.0000   0.0000   0.4578
   0.500   0.6745   0.00719   0.00263  -0.1354  0.6842  0.8055  -0.9420   0.0000   0.0000   0.0000   0.4486
   0.750   0.6971   0.00702   0.00265  -0.1339  0.6809  0.8944  -0.9610   0.0000   0.0000   0.0000   0.4396
   1.000   0.7349   0.00689   0.00262  -0.1358  0.6766  1.0001  -0.9887   0.0000   0.0000   0.0000   0.4320
   1.250   0.7632   0.00693   0.00262  -0.1360  0.6725  1.0001  -1.0118   0.0000   0.0000   0.0000   0.4250
   1.500   0.7915   0.00699   0.00264  -0.1361  0.6685  1.0001  -1.0355   0.0000   0.0000   0.0000   0.4185
   1.750   0.8196   0.00704   0.00266  -0.1362  0.6637  1.0001  -1.0598   0.0000   0.0000   0.0000   0.4124
   2.000   0.8480   0.00711   0.00267  -0.1363  0.6597  1.0001  -1.0850   0.0000   0.0000   0.0000   0.4067
   2.250   0.8758   0.00715   0.00273  -0.1364  0.6544  1.0001  -1.1107   0.0000   0.0000   0.0000   0.4013
   2.500   0.9039   0.00722   0.00275  -0.1365  0.6498  1.0001  -1.1375   0.0000   0.0000   0.0000   0.3962
   2.750   0.9316   0.00728   0.00281  -0.1365  0.6442  1.0001  -1.1649   0.0000   0.0000   0.0000   0.3915
   3.000   0.9595   0.00735   0.00284  -0.1366  0.6390  1.0001  -1.1935   0.0000   0.0000   0.0000   0.3870
   3.250   0.9870   0.00741   0.00292  -0.1366  0.6327  1.0001  -1.2230   0.0000   0.0000   0.0000   0.3827
   3.500   1.0146   0.00750   0.00297  -0.1366  0.6269  1.0001  -1.2539   0.0000   0.0000   0.0000   0.3786
   3.750   1.0419   0.00758   0.00305  -0.1366  0.6199  1.0001  -1.2860   0.0000   0.0000   0.0000   0.3747
   4.000   1.0691   0.00767   0.00313  -0.1365  0.6129  1.0001  -1.3197   0.0000   0.0000   0.0000   0.3710
   4.250   1.0960   0.00778   0.00322  -0.1364  0.6056  1.0001  -1.3548   0.0000   0.0000   0.0000   0.3675
   4.500   1.1227   0.00788   0.00332  -0.1363  0.5972  1.0001  -1.3918   0.0000   0.0000   0.0000   0.3641
   4.750   1.1493   0.00800   0.00343  -0.1361  0.5883  1.0001  -1.4309   0.0000   0.0000   0.0000   0.3608
   5.000   1.1755   0.00813   0.00355  -0.1359  0.5788  1.0001  -1.4723   0.0000   0.0000   0.0000   0.3577
   5.250   1.2013   0.00828   0.00368  -0.1356  0.5684  1.0001  -1.5165   0.0000   0.0000   0.0000   0.3546
   5.500   1.2266   0.00845   0.00383  -0.1353  0.5569  1.0001  -1.5651   0.0000   0.0000   0.0000   0.3516
   5.750   1.2514   0.00865   0.00400  -0.1348  0.5442  1.0001  -1.6223   0.0000   0.0000   0.0000   0.3487
   6.000   1.2753   0.00888   0.00419  -0.1342  0.5303  1.0001  -1.6953   0.0000   0.0000   0.0000   0.3459
   6.250   1.2988   0.00913   0.00440  -0.1335  0.5145  1.0001  -1.7751   0.0000   0.0000   0.0000   0.3431
   6.500   1.3207   0.00945   0.00465  -0.1326  0.4976  1.0001  -1.8573   0.0000   0.0000   0.0000   0.3403
   6.750   1.3422   0.00980   0.00493  -0.1316  0.4789  1.0001  -1.9438   0.0000   0.0000   0.0000   0.3376
   7.000   1.3624   0.01019   0.00525  -0.1304  0.4595  1.0001  -2.0342   0.0000   0.0000   0.0000   0.3349
   7.250   1.3816   0.01061   0.00561  -0.1290  0.4404  1.0001  -2.1308   0.0000   0.0000   0.0000   0.3322
   7.750   1.4180   0.01151   0.00637  -0.1260  0.4035  1.0001  -2.3392   0.0000   0.0000   0.0000   0.3269
   8.000   1.4331   0.01200   0.00679  -0.1239  0.3858  1.0001  -2.4444   0.0000   0.0000   0.0000   0.3242
   8.250   1.4464   0.01256   0.00729  -0.1216  0.3679  1.0001  -2.5466   0.0000   0.0000   0.0000   0.3214
   8.500   1.4599   0.01316   0.00783  -0.1194  0.3491  1.0001  -2.6517   0.0000   0.0000   0.0000   0.3187
   8.750   1.4723   0.01385   0.00845  -0.1172  0.3299  1.0001  -2.7604   0.0000   0.0000   0.0000   0.3161
   9.000   1.4835   0.01464   0.00916  -0.1149  0.3103  1.0001  -2.8674   0.0000   0.0000   0.0000   0.3135
   9.250   1.4938   0.01553   0.00997  -0.1126  0.2902  1.0001  -2.9730   0.0000   0.0000   0.0000   0.3111
   9.500   1.5033   0.01653   0.01088  -0.1104  0.2700  1.0001  -3.0771   0.0000   0.0000   0.0000   0.3087
   9.750   1.5120   0.01762   0.01189  -0.1082  0.2497  1.0001  -3.1823   0.0000   0.0000   0.0000   0.3063
  10.000   1.5200   0.01882   0.01300  -0.1060  0.2299  1.0001  -3.2907   0.0000   0.0000   0.0000   0.3041
  10.250   1.5272   0.02011   0.01420  -0.1039  0.2103  1.0001  -3.3975   0.0000   0.0000   0.0000   0.3019
  10.500   1.5341   0.02146   0.01547  -0.1018  0.1912  1.0001  -3.5045   0.0000   0.0000   0.0000   0.2998
  10.750   1.5403   0.02290   0.01682  -0.0997  0.1727  1.0001  -3.6097   0.0000   0.0000   0.0000   0.2977
  11.000   1.5458   0.02441   0.01825  -0.0976  0.1552  1.0001  -3.7136   0.0000   0.0000   0.0000   0.2957
  11.250   1.5509   0.02598   0.01975  -0.0956  0.1390  1.0001  -3.8171   0.0000   0.0000   0.0000   0.2937
  11.500   1.5554   0.02762   0.02132  -0.0936  0.1238  1.0001  -3.9253   0.0000   0.0000   0.0000   0.2917
  11.750   1.5595   0.02932   0.02296  -0.0917  0.1097  1.0001  -4.0334   0.0000   0.0000   0.0000   0.2899
  12.000   1.5636   0.03106   0.02465  -0.0898  0.0973  1.0001  -4.1420   0.0000   0.0000   0.0000   0.2880
  12.250   1.5673   0.03283   0.02639  -0.0880  0.0866  1.0001  -4.2502   0.0000   0.0000   0.0000   0.2862
  12.500   1.5714   0.03463   0.02816  -0.0863  0.0775  1.0001  -4.3603   0.0000   0.0000   0.0000   0.2845
  12.750   1.5755   0.03649   0.03000  -0.0847  0.0698  1.0001  -4.4707   0.0000   0.0000   0.0000   0.2828
  13.000   1.5801   0.03835   0.03186  -0.0832  0.0631  1.0001  -4.5839   0.0000   0.0000   0.0000   0.2812
  13.250   1.5843   0.04027   0.03379  -0.0818  0.0575  1.0001  -4.7011   0.0000   0.0000   0.0000   0.2797
  13.500   1.5884   0.04226   0.03579  -0.0804  0.0527  1.0001  -4.8215   0.0000   0.0000   0.0000   0.2782
  13.750   1.5921   0.04433   0.03788  -0.0792  0.0488  1.0001  -4.9409   0.0000   0.0000   0.0000   0.2767
  14.000   1.5959   0.04644   0.04002  -0.0780  0.0453  1.0001  -5.0612   0.0000   0.0000   0.0000   0.2753
  14.250   1.6003   0.04853   0.04215  -0.0769  0.0424  1.0001  -5.1844   0.0000   0.0000   0.0000   0.2740
  14.500   1.6022   0.05089   0.04455  -0.0758  0.0399  1.0001  -5.2973   0.0000   0.0000   0.0000   0.2727
  14.750   1.6063   0.05310   0.04681  -0.0749  0.0375  1.0001  -5.4202   0.0000   0.0000   0.0000   0.2714
  15.000   1.6073   0.05566   0.04942  -0.0739  0.0356  1.0001  -5.5299   0.0000   0.0000   0.0000   0.2702
  15.250   1.6109   0.05801   0.05183  -0.0731  0.0337  1.0001  -5.6576   0.0000   0.0000   0.0000   0.2691
  15.750   1.6129   0.06335   0.05730  -0.0717  0.0306  1.0001  -5.8942   0.0000   0.0000   0.0000   0.2670
  16.000   1.6134   0.06616   0.06016  -0.0711  0.0293  1.0001  -6.0105   0.0000   0.0000   0.0000   0.2660
  16.250   1.6087   0.06962   0.06367  -0.0705  0.0282  1.0001  -6.0989   0.0000   0.0000   0.0000   0.2652
  16.500   1.6111   0.07230   0.06645  -0.0701  0.0272  1.0001  -6.2248   0.0000   0.0000   0.0000   0.2643
  16.750   1.6112   0.07529   0.06953  -0.0698  0.0262  1.0001  -6.3393   0.0000   0.0000   0.0000   0.2635
  17.000   1.6081   0.07872   0.07301  -0.0696  0.0254  1.0001  -6.4369   0.0000   0.0000   0.0000   0.2628
  17.250   1.6009   0.08271   0.07707  -0.0694  0.0246  1.0001  -6.5086   0.0000   0.0000   0.0000   0.2623
  17.500   1.6014   0.08576   0.08022  -0.0694  0.0238  1.0001  -6.6241   0.0000   0.0000   0.0000   0.2617
  17.750   1.5997   0.08913   0.08369  -0.0695  0.0231  1.0001  -6.7280   0.0000   0.0000   0.0000   0.2612
  18.000   1.5965   0.09276   0.08740  -0.0697  0.0224  1.0001  -6.8229   0.0000   0.0000   0.0000   0.2608
  18.250   1.5902   0.09686   0.09156  -0.0700  0.0219  1.0001  -6.9028   0.0000   0.0000   0.0000   0.2605
  18.500   1.5793   0.10166   0.09644  -0.0706  0.0213  1.0001  -6.9516   0.0000   0.0000   0.0000   0.2606
  18.750   1.5775   0.10518   0.10007  -0.0711  0.0209  1.0001  -7.0580   0.0000   0.0000   0.0000   0.2603
  19.000   1.5739   0.10900   0.10399  -0.0717  0.0204  1.0001  -7.1520   0.0000   0.0000   0.0000   0.2602
  19.250   1.5695   0.11297   0.10806  -0.0725  0.0199  1.0001  -7.2403   0.0000   0.0000   0.0000   0.2601
  19.500   1.5648   0.11704   0.11221  -0.0735  0.0195  1.0001  -7.3253   0.0000   0.0000   0.0000   0.2602
  19.750   1.5592   0.12127   0.11652  -0.0746  0.0191  1.0001  -7.4032   0.0000   0.0000   0.0000   0.2604
  20.000   1.5517   0.12584   0.12115  -0.0759  0.0187  1.0001  -7.4643   0.0000   0.0000   0.0000   0.2609


