xflr5 v6.61

 Calculated polar for: QX0026 thickness=13.65

 1 1 Reynolds number fixed          Mach number fixed         

 xtrf =   1.000 (top)        1.000 (bottom)
 Mach =   0.000     Re =     0.160 e 6     Ncrit =   9.000

  alpha     CL        CD       CDp       Cm    Top Xtr Bot Xtr   Cpmin    Chinge    XCp    
 ------- -------- --------- --------- -------- ------- ------- -------- --------- ---------
 -10.000  -0.1295   0.10210   0.09807  -0.0913  0.9577  0.0712  -1.5157   0.0000   0.0000   0.0000  -0.5071
  -9.750  -0.1191   0.09865   0.09460  -0.0946  0.9522  0.0740  -1.5178   0.0000   0.0000   0.0000  -0.5996
  -9.500  -0.1209   0.09422   0.09019  -0.1003  0.9454  0.0760  -1.6306   0.0000   0.0000   0.0000  -0.6323
  -9.250  -0.1023   0.09172   0.08766  -0.0997  0.9404  0.0777  -1.5243   0.0000   0.0000   0.0000  -0.7857
  -9.000  -0.0969   0.08863   0.08457  -0.1023  0.9339  0.0811  -1.5440   0.0000   0.0000   0.0000  -0.8683
  -8.750  -0.0973   0.08486   0.08081  -0.1055  0.9269  0.0833  -1.6097   0.0000   0.0000   0.0000  -0.8957
  -8.500  -0.0834   0.08283   0.07876  -0.1050  0.9216  0.0862  -1.5392   0.0000   0.0000   0.0000  -1.0783
  -6.750  -0.0978   0.04141   0.03610  -0.1414  0.8741  0.0685  -2.5643   0.0000   0.0000   0.0000  -1.2457
  -6.500  -0.0848   0.03852   0.03302  -0.1412  0.8686  0.0668  -2.5437   0.0000   0.0000   0.0000  -1.4702
  -6.250  -0.0684   0.03362   0.02739  -0.1421  0.8653  0.0648  -2.6161   0.0000   0.0000   0.0000  -1.8961
  -6.000  -0.0541   0.03061   0.02371  -0.1413  0.8595  0.0639  -2.6617   0.0000   0.0000   0.0000  -2.4478
  -5.750  -0.0274   0.02875   0.02153  -0.1415  0.8569  0.0649  -2.5833   0.0000   0.0000   0.0000  -5.0691
  -5.250   0.0193   0.02629   0.01836  -0.1407  0.8487  0.0697  -2.4243   0.0000   0.0000   0.0000   7.7418
  -5.000   0.0405   0.02567   0.01774  -0.1400  0.8438  0.0719  -2.3116   0.0000   0.0000   0.0000   3.8009
  -4.750   0.0684   0.02472   0.01646  -0.1399  0.8407  0.0751  -2.2081   0.0000   0.0000   0.0000   2.3504
  -4.500   0.0927   0.02414   0.01591  -0.1396  0.8367  0.0792  -2.0929   0.0000   0.0000   0.0000   1.7932
  -4.250   0.1178   0.02353   0.01518  -0.1391  0.8326  0.0836  -1.9957   0.0000   0.0000   0.0000   1.4596
  -4.000   0.1484   0.02285   0.01437  -0.1394  0.8304  0.0895  -1.8796   0.0000   0.0000   0.0000   1.2112
  -3.750   0.1681   0.02269   0.01429  -0.1384  0.8247  0.0956  -1.7774   0.0000   0.0000   0.0000   1.0916
  -3.500   0.1974   0.02209   0.01368  -0.1386  0.8220  0.1040  -1.6593   0.0000   0.0000   0.0000   0.9662
  -3.250   0.2191   0.02192   0.01361  -0.1379  0.8170  0.1138  -1.5608   0.0000   0.0000   0.0000   0.8913
  -3.000   0.2467   0.02150   0.01324  -0.1378  0.8136  0.1289  -1.4573   0.0000   0.0000   0.0000   0.8186
  -2.750   0.2777   0.02088   0.01275  -0.1383  0.8115  0.1540  -1.3451   0.0000   0.0000   0.0000   0.7561
  -2.500   0.2965   0.02091   0.01302  -0.1373  0.8052  0.1898  -1.2582   0.0000   0.0000   0.0000   0.7201
  -2.250   0.3269   0.02032   0.01273  -0.1378  0.8028  0.2633  -1.1477   0.0000   0.0000   0.0000   0.6773
  -2.000   0.3471   0.02045   0.01310  -0.1371  0.7969  0.3289  -1.0602   0.0000   0.0000   0.0000   0.6496
  -1.750   0.3760   0.02008   0.01298  -0.1372  0.7940  0.4055  -0.9544   0.0000   0.0000   0.0000   0.6187
  -1.250   0.4226   0.01982   0.01339  -0.1356  0.7851  0.5914  -0.7730   0.0000   0.0000   0.0000   0.5733
  -1.000   0.4485   0.01932   0.01326  -0.1343  0.7830  0.7168  -0.7621   0.0000   0.0000   0.0000   0.5510
  -0.750   0.4591   0.01960   0.01384  -0.1306  0.7761  0.8235  -0.7702   0.0000   0.0000   0.0000   0.5357
  -0.500   0.5034   0.01912   0.01342  -0.1327  0.7741  1.0001  -0.7992   0.0000   0.0000   0.0000   0.5142
  -0.250   0.5246   0.01962   0.01379  -0.1321  0.7679  1.0001  -0.8135   0.0000   0.0000   0.0000   0.5019
   0.000   0.5559   0.01956   0.01358  -0.1326  0.7647  1.0001  -0.8357   0.0000   0.0000   0.0000   0.4881
   0.500   0.6085   0.01996   0.01378  -0.1323  0.7553  1.0001  -0.8747   0.0000   0.0000   0.0000   0.4661
   0.750   0.6430   0.01971   0.01340  -0.1331  0.7532  1.0001  -0.9011   0.0000   0.0000   0.0000   0.4552
   1.000   0.6617   0.02031   0.01395  -0.1319  0.7458  1.0001  -0.9161   0.0000   0.0000   0.0000   0.4473
   1.250   0.6960   0.02004   0.01357  -0.1326  0.7435  1.0001  -0.9436   0.0000   0.0000   0.0000   0.4381
   1.500   0.7154   0.02058   0.01409  -0.1316  0.7362  1.0001  -0.9604   0.0000   0.0000   0.0000   0.4311
   1.750   0.7496   0.02028   0.01371  -0.1323  0.7337  1.0001  -0.9893   0.0000   0.0000   0.0000   0.4232
   2.000   0.7700   0.02075   0.01416  -0.1313  0.7265  1.0001  -1.0080   0.0000   0.0000   0.0000   0.4169
   2.250   0.8040   0.02044   0.01379  -0.1319  0.7238  1.0001  -1.0383   0.0000   0.0000   0.0000   0.4101
   2.500   0.8253   0.02084   0.01417  -0.1310  0.7168  1.0001  -1.0593   0.0000   0.0000   0.0000   0.4044
   2.750   0.8591   0.02051   0.01379  -0.1316  0.7137  1.0001  -1.0912   0.0000   0.0000   0.0000   0.3985
   3.000   0.8815   0.02082   0.01410  -0.1308  0.7068  1.0001  -1.1148   0.0000   0.0000   0.0000   0.3934
   3.500   0.9381   0.02071   0.01396  -0.1306  0.6966  1.0001  -1.1749   0.0000   0.0000   0.0000   0.3836
   3.750   0.9718   0.02034   0.01356  -0.1311  0.6929  1.0001  -1.2115   0.0000   0.0000   0.0000   0.3790
   4.000   0.9952   0.02052   0.01377  -0.1304  0.6858  1.0001  -1.2407   0.0000   0.0000   0.0000   0.3747
   4.250   1.0297   0.02009   0.01330  -0.1310  0.6820  1.0001  -1.2811   0.0000   0.0000   0.0000   0.3706
   4.500   1.0526   0.02026   0.01351  -0.1302  0.6744  1.0001  -1.3131   0.0000   0.0000   0.0000   0.3667
   4.750   1.0888   0.01974   0.01295  -0.1311  0.6708  1.0001  -1.3592   0.0000   0.0000   0.0000   0.3631
   5.000   1.1110   0.01989   0.01315  -0.1301  0.6624  1.0001  -1.3945   0.0000   0.0000   0.0000   0.3595
   5.250   1.1374   0.01983   0.01313  -0.1297  0.6553  1.0001  -1.4363   0.0000   0.0000   0.0000   0.3560
   5.500   1.1712   0.01940   0.01267  -0.1302  0.6500  1.0001  -1.4894   0.0000   0.0000   0.0000   0.3529
   5.750   1.1947   0.01944   0.01276  -0.1294  0.6413  1.0001  -1.5365   0.0000   0.0000   0.0000   0.3496
   6.000   1.2204   0.01937   0.01274  -0.1288  0.6330  1.0001  -1.5948   0.0000   0.0000   0.0000   0.3465
   6.250   1.2495   0.01914   0.01252  -0.1287  0.6253  1.0001  -1.6730   0.0000   0.0000   0.0000   0.3436
   6.500   1.2799   0.01886   0.01223  -0.1288  0.6175  1.0001  -1.7632   0.0000   0.0000   0.0000   0.3409
   6.750   1.3039   0.01884   0.01226  -0.1280  0.6074  1.0001  -1.8485   0.0000   0.0000   0.0000   0.3380
   7.000   1.3282   0.01880   0.01225  -0.1272  0.5969  1.0001  -1.9403   0.0000   0.0000   0.0000   0.3352
   7.250   1.3526   0.01877   0.01224  -0.1264  0.5858  1.0001  -2.0397   0.0000   0.0000   0.0000   0.3325
   7.500   1.3771   0.01874   0.01223  -0.1256  0.5741  1.0001  -2.1478   0.0000   0.0000   0.0000   0.3299
   7.750   1.3953   0.01892   0.01247  -0.1238  0.5602  1.0001  -2.2498   0.0000   0.0000   0.0000   0.3270
   8.000   1.4149   0.01905   0.01262  -0.1223  0.5458  1.0001  -2.3581   0.0000   0.0000   0.0000   0.3243
   8.250   1.4364   0.01914   0.01268  -0.1210  0.5309  1.0001  -2.4797   0.0000   0.0000   0.0000   0.3217
   8.500   1.4508   0.01947   0.01304  -0.1187  0.5139  1.0001  -2.5851   0.0000   0.0000   0.0000   0.3189
   8.750   1.4681   0.01976   0.01328  -0.1169  0.4971  1.0001  -2.7002   0.0000   0.0000   0.0000   0.3163
   9.000   1.4797   0.02024   0.01376  -0.1142  0.4793  1.0001  -2.8073   0.0000   0.0000   0.0000   0.3134
   9.250   1.4897   0.02076   0.01426  -0.1113  0.4620  1.0001  -2.9117   0.0000   0.0000   0.0000   0.3105
   9.500   1.4989   0.02140   0.01485  -0.1084  0.4445  1.0001  -3.0147   0.0000   0.0000   0.0000   0.3077
   9.750   1.5054   0.02219   0.01564  -0.1053  0.4265  1.0001  -3.1105   0.0000   0.0000   0.0000   0.3049
  10.000   1.5117   0.02308   0.01649  -0.1023  0.4088  1.0001  -3.2082   0.0000   0.0000   0.0000   0.3022
  10.250   1.5163   0.02411   0.01750  -0.0993  0.3906  1.0001  -3.3059   0.0000   0.0000   0.0000   0.2996
  10.500   1.5195   0.02530   0.01869  -0.0964  0.3721  1.0001  -3.3993   0.0000   0.0000   0.0000   0.2970
  10.750   1.5219   0.02662   0.01998  -0.0936  0.3535  1.0001  -3.4909   0.0000   0.0000   0.0000   0.2946
  11.000   1.5232   0.02810   0.02142  -0.0908  0.3347  1.0001  -3.5793   0.0000   0.0000   0.0000   0.2923
  11.250   1.5233   0.02974   0.02302  -0.0881  0.3156  1.0001  -3.6639   0.0000   0.0000   0.0000   0.2900
  11.500   1.5224   0.03154   0.02478  -0.0855  0.2961  1.0001  -3.7449   0.0000   0.0000   0.0000   0.2878
  11.750   1.5205   0.03351   0.02672  -0.0830  0.2764  1.0001  -3.8232   0.0000   0.0000   0.0000   0.2858
  12.000   1.5174   0.03566   0.02881  -0.0806  0.2565  1.0001  -3.9019   0.0000   0.0000   0.0000   0.2838
  12.250   1.5136   0.03796   0.03107  -0.0783  0.2363  1.0001  -3.9771   0.0000   0.0000   0.0000   0.2819
  12.500   1.5085   0.04045   0.03350  -0.0761  0.2163  1.0001  -4.0473   0.0000   0.0000   0.0000   0.2801
  12.750   1.5026   0.04315   0.03613  -0.0740  0.1967  1.0001  -4.1132   0.0000   0.0000   0.0000   0.2784
  13.000   1.4959   0.04604   0.03894  -0.0721  0.1781  1.0001  -4.1750   0.0000   0.0000   0.0000   0.2768
  13.250   1.4888   0.04909   0.04191  -0.0703  0.1610  1.0001  -4.2338   0.0000   0.0000   0.0000   0.2753
  13.500   1.4820   0.05224   0.04499  -0.0688  0.1455  1.0001  -4.2919   0.0000   0.0000   0.0000   0.2739
  13.750   1.4758   0.05544   0.04814  -0.0674  0.1319  1.0001  -4.3504   0.0000   0.0000   0.0000   0.2726
  14.000   1.4694   0.05872   0.05135  -0.0661  0.1209  1.0001  -4.4074   0.0000   0.0000   0.0000   0.2714
  14.250   1.4651   0.06188   0.05450  -0.0650  0.1107  1.0001  -4.4742   0.0000   0.0000   0.0000   0.2702
  14.500   1.4611   0.06507   0.05765  -0.0640  0.1025  1.0001  -4.5440   0.0000   0.0000   0.0000   0.2692
  14.750   1.4581   0.06817   0.06074  -0.0631  0.0955  1.0001  -4.6175   0.0000   0.0000   0.0000   0.2681
  15.000   1.4564   0.07117   0.06373  -0.0623  0.0893  1.0001  -4.6953   0.0000   0.0000   0.0000   0.2671
  15.250   1.4557   0.07406   0.06664  -0.0615  0.0837  1.0001  -4.7763   0.0000   0.0000   0.0000   0.2660
  15.500   1.4559   0.07687   0.06948  -0.0608  0.0788  1.0001  -4.8605   0.0000   0.0000   0.0000   0.2650
  15.750   1.4573   0.07951   0.07212  -0.0601  0.0746  1.0001  -4.9506   0.0000   0.0000   0.0000   0.2639
  16.000   1.4602   0.08192   0.07449  -0.0595  0.0707  1.0001  -5.0498   0.0000   0.0000   0.0000   0.2628
  16.250   1.4623   0.08463   0.07731  -0.0590  0.0669  1.0001  -5.1409   0.0000   0.0000   0.0000   0.2619
  16.500   1.4671   0.08680   0.07947  -0.0583  0.0638  1.0001  -5.2568   0.0000   0.0000   0.0000   0.2607
  16.750   1.4710   0.08921   0.08195  -0.0578  0.0608  1.0001  -5.3651   0.0000   0.0000   0.0000   0.2598
  17.000   1.4774   0.09117   0.08394  -0.0570  0.0581  1.0001  -5.4852   0.0000   0.0000   0.0000   0.2585
  17.250   1.4820   0.09350   0.08634  -0.0566  0.0557  1.0001  -5.5977   0.0000   0.0000   0.0000   0.2576
  17.500   1.4899   0.09528   0.08813  -0.0559  0.0534  1.0001  -5.7273   0.0000   0.0000   0.0000   0.2563
  17.750   1.4919   0.09809   0.09109  -0.0558  0.0513  1.0001  -5.8216   0.0000   0.0000   0.0000   0.2557
  18.000   1.5068   0.09878   0.09167  -0.0548  0.0492  1.0001  -5.9962   0.0000   0.0000   0.0000   0.2540
  18.250   1.5045   0.10231   0.09548  -0.0550  0.0478  1.0001  -6.0545   0.0000   0.0000   0.0000   0.2536
  18.500   1.5077   0.10495   0.09824  -0.0550  0.0463  1.0001  -6.1613   0.0000   0.0000   0.0000   0.2529
  18.750   1.5236   0.10554   0.09873  -0.0539  0.0446  1.0001  -6.3589   0.0000   0.0000   0.0000   0.2513
  19.000   1.5135   0.11029   0.10381  -0.0551  0.0437  1.0001  -6.3762   0.0000   0.0000   0.0000   0.2517
  19.250   1.5086   0.11429   0.10803  -0.0560  0.0426  1.0001  -6.4292   0.0000   0.0000   0.0000   0.2518
  19.500   1.5109   0.11713   0.11097  -0.0565  0.0415  1.0001  -6.5353   0.0000   0.0000   0.0000   0.2514
  19.750   1.5260   0.11785   0.11162  -0.0556  0.0402  1.0001  -6.7277   0.0000   0.0000   0.0000   0.2499
  20.000   1.5105   0.12372   0.11782  -0.0579  0.0398  1.0001  -6.6961   0.0000   0.0000   0.0000   0.2511


