xflr5 v6.61

 Calculated polar for: QX0026 v45

 1 1 Reynolds number fixed          Mach number fixed         

 xtrf =   1.000 (top)        1.000 (bottom)
 Mach =   0.000     Re =     0.500 e 6     Ncrit =   9.000

  alpha     CL        CD       CDp       Cm    Top Xtr Bot Xtr   Cpmin    Chinge    XCp    
 ------- -------- --------- --------- -------- ------- ------- -------- --------- ---------
  -5.000   0.0550   0.01250   0.00556  -0.1309  0.7639  0.0324  -2.5720   0.0000   0.0000   0.0000   2.6949
  -4.500   0.1110   0.01194   0.00496  -0.1312  0.7574  0.0346  -2.2439   0.0000   0.0000   0.0000   1.4599
  -4.000   0.1676   0.01141   0.00435  -0.1315  0.7516  0.0391  -2.0225   0.0000   0.0000   0.0000   1.0510
  -3.000   0.2807   0.01054   0.00354  -0.1321  0.7372  0.0760  -1.6142   0.0000   0.0000   0.0000   0.7274
  -2.500   0.3372   0.01008   0.00329  -0.1325  0.7297  0.1325  -1.3881   0.0000   0.0000   0.0000   0.6473
  -2.000   0.3939   0.00966   0.00310  -0.1329  0.7221  0.2182  -1.1629   0.0000   0.0000   0.0000   0.5901
  -1.500   0.4505   0.00932   0.00294  -0.1332  0.7134  0.2851  -0.9440   0.0000   0.0000   0.0000   0.5470
  -1.000   0.5070   0.00899   0.00281  -0.1334  0.7045  0.3648  -0.8359   0.0000   0.0000   0.0000   0.5135
  -0.500   0.5635   0.00867   0.00279  -0.1338  0.6972  0.4775  -0.8783   0.0000   0.0000   0.0000   0.4868
   0.000   0.6185   0.00830   0.00288  -0.1338  0.6903  0.6568  -0.9203   0.0000   0.0000   0.0000   0.4649
   0.500   0.6686   0.00795   0.00301  -0.1323  0.6820  0.8301  -0.9653   0.0000   0.0000   0.0000   0.4456
   1.000   0.7308   0.00776   0.00296  -0.1332  0.6708  1.0001  -1.0196   0.0000   0.0000   0.0000   0.4294
   1.500   0.7855   0.00778   0.00295  -0.1330  0.6564  1.0001  -1.0695   0.0000   0.0000   0.0000   0.4158
   2.000   0.8409   0.00781   0.00292  -0.1330  0.6423  1.0001  -1.1240   0.0000   0.0000   0.0000   0.4040
   2.500   0.8962   0.00795   0.00295  -0.1330  0.6310  1.0001  -1.1862   0.0000   0.0000   0.0000   0.3936
   3.000   0.9507   0.00819   0.00308  -0.1329  0.6175  1.0001  -1.2482   0.0000   0.0000   0.0000   0.3843
   3.500   1.0046   0.00837   0.00327  -0.1326  0.5987  1.0001  -1.3103   0.0000   0.0000   0.0000   0.3760
   4.000   1.0579   0.00857   0.00344  -0.1323  0.5790  1.0001  -1.3856   0.0000   0.0000   0.0000   0.3684
   4.500   1.1088   0.00892   0.00367  -0.1316  0.5571  1.0001  -1.4614   0.0000   0.0000   0.0000   0.3613
   5.000   1.1582   0.00933   0.00400  -0.1306  0.5232  1.0001  -1.5367   0.0000   0.0000   0.0000   0.3547
   5.500   1.2047   0.00989   0.00441  -0.1292  0.4937  1.0001  -1.6231   0.0000   0.0000   0.0000   0.3485
   6.000   1.2505   0.01050   0.00493  -0.1277  0.4626  1.0001  -1.7924   0.0000   0.0000   0.0000   0.3427
   6.500   1.2929   0.01123   0.00555  -0.1257  0.4323  1.0001  -1.9862   0.0000   0.0000   0.0000   0.3371
   7.000   1.3330   0.01203   0.00624  -0.1233  0.3998  1.0001  -2.1802   0.0000   0.0000   0.0000   0.3316
   7.500   1.3674   0.01297   0.00707  -0.1200  0.3664  1.0001  -2.3670   0.0000   0.0000   0.0000   0.3262
   8.000   1.3951   0.01412   0.00808  -0.1157  0.3315  1.0001  -2.5430   0.0000   0.0000   0.0000   0.3206
   8.500   1.4229   0.01542   0.00930  -0.1119  0.2992  1.0001  -2.7215   0.0000   0.0000   0.0000   0.3154
   9.000   1.4438   0.01725   0.01097  -0.1075  0.2628  1.0001  -2.8863   0.0000   0.0000   0.0000   0.3104
   9.500   1.4654   0.01924   0.01285  -0.1037  0.2257  1.0001  -3.0540   0.0000   0.0000   0.0000   0.3059
  10.000   1.4815   0.02175   0.01522  -0.0997  0.1958  1.0001  -3.2094   0.0000   0.0000   0.0000   0.3015
  10.500   1.4951   0.02460   0.01789  -0.0959  0.1547  1.0001  -3.4120   0.0000   0.0000   0.0000   0.2974
  11.000   1.5101   0.02745   0.02070  -0.0924  0.1349  1.0001  -3.6254   0.0000   0.0000   0.0000   0.2936
  12.000   1.5307   0.03417   0.02729  -0.0856  0.0892  1.0001  -4.0296   0.0000   0.0000   0.0000   0.2864
  12.500   1.5458   0.03730   0.03048  -0.0829  0.0722  1.0001  -4.2514   0.0000   0.0000   0.0000   0.2831
  13.000   1.5508   0.04148   0.03459  -0.0800  0.0560  1.0001  -4.4505   0.0000   0.0000   0.0000   0.2800
  13.500   1.5557   0.04590   0.03908  -0.0774  0.0491  1.0001  -4.6517   0.0000   0.0000   0.0000   0.2771
  14.000   1.5608   0.05050   0.04381  -0.0752  0.0434  1.0001  -4.8535   0.0000   0.0000   0.0000   0.2745
  14.500   1.5672   0.05517   0.04862  -0.0734  0.0378  1.0001  -5.0602   0.0000   0.0000   0.0000   0.2720
  15.000   1.5730   0.06009   0.05365  -0.0719  0.0339  1.0001  -5.2768   0.0000   0.0000   0.0000   0.2698
  15.500   1.5751   0.06555   0.05925  -0.0707  0.0313  1.0001  -5.4833   0.0000   0.0000   0.0000   0.2679
  16.000   1.5740   0.07161   0.06545  -0.0699  0.0293  1.0001  -5.6782   0.0000   0.0000   0.0000   0.2662
  16.500   1.5704   0.07820   0.07221  -0.0694  0.0277  1.0001  -5.8866   0.0000   0.0000   0.0000   0.2648
  17.000   1.5650   0.08514   0.07933  -0.0693  0.0262  1.0001  -6.0861   0.0000   0.0000   0.0000   0.2637
  17.500   1.5515   0.09341   0.08775  -0.0697  0.0250  1.0001  -6.2335   0.0000   0.0000   0.0000   0.2632
  18.000   1.5439   0.10107   0.09563  -0.0706  0.0240  1.0001  -6.4097   0.0000   0.0000   0.0000   0.2627
  18.500   1.5337   0.10917   0.10391  -0.0719  0.0231  1.0001  -6.5676   0.0000   0.0000   0.0000   0.2626
  19.000   1.5206   0.11785   0.11274  -0.0738  0.0223  1.0001  -6.7145   0.0000   0.0000   0.0000   0.2630
  19.500   1.5098   0.12628   0.12132  -0.0760  0.0215  1.0001  -6.8673   0.0000   0.0000   0.0000   0.2636
  20.000   1.5045   0.13398   0.12922  -0.0784  0.0207  1.0001  -7.0545   0.0000   0.0000   0.0000   0.2641


