xflr5 v6.61

 Calculated polar for: QX0026 thickness=13.65

 1 1 Reynolds number fixed          Mach number fixed         

 xtrf =   1.000 (top)        1.000 (bottom)
 Mach =   0.000     Re =     0.240 e 6     Ncrit =   9.000

  alpha     CL        CD       CDp       Cm    Top Xtr Bot Xtr   Cpmin    Chinge    XCp    
 ------- -------- --------- --------- -------- ------- ------- -------- --------- ---------
  -9.750  -0.1415   0.09598   0.09242  -0.0861  0.9008  0.0536  -1.6329   0.0000   0.0000   0.0000  -0.4038
  -9.500  -0.1391   0.09267   0.08909  -0.0881  0.8950  0.0557  -1.6675   0.0000   0.0000   0.0000  -0.4287
  -9.250  -0.1498   0.08712   0.08355  -0.0937  0.8888  0.0572  -1.8638   0.0000   0.0000   0.0000  -0.4165
  -9.000  -0.1352   0.08534   0.08175  -0.0925  0.8840  0.0579  -1.7447   0.0000   0.0000   0.0000  -0.4781
  -8.750  -0.1258   0.08296   0.07936  -0.0930  0.8793  0.0592  -1.6955   0.0000   0.0000   0.0000  -0.5346
  -8.500  -0.1245   0.07925   0.07563  -0.0960  0.8741  0.0617  -1.7539   0.0000   0.0000   0.0000  -0.5657
  -8.250  -0.1328   0.07319   0.06960  -0.1027  0.8677  0.0634  -1.9302   0.0000   0.0000   0.0000  -0.5640
  -8.000  -0.1192   0.07162   0.06800  -0.1017  0.8639  0.0643  -1.8341   0.0000   0.0000   0.0000  -0.6469
  -7.750  -0.1130   0.06889   0.06528  -0.1035  0.8589  0.0660  -1.8206   0.0000   0.0000   0.0000  -0.7102
  -7.250  -0.1595   0.03161   0.02607  -0.1376  0.8461  0.0452  -3.3177   0.0000   0.0000   0.0000  -0.6463
  -7.000  -0.1413   0.02841   0.02239  -0.1378  0.8420  0.0451  -3.3040   0.0000   0.0000   0.0000  -0.7623
  -6.750  -0.1198   0.02583   0.01923  -0.1378  0.8392  0.0455  -3.2636   0.0000   0.0000   0.0000  -0.9429
  -6.500  -0.0971   0.02415   0.01733  -0.1378  0.8347  0.0465  -3.1553   0.0000   0.0000   0.0000  -1.2201
  -6.250  -0.0711   0.02343   0.01660  -0.1378  0.8316  0.0483  -2.9981   0.0000   0.0000   0.0000  -1.7536
  -6.000  -0.0458   0.02223   0.01505  -0.1377  0.8284  0.0502  -2.9028   0.0000   0.0000   0.0000  -2.8560
  -5.750  -0.0204   0.02103   0.01357  -0.1375  0.8245  0.0516  -2.8045   0.0000   0.0000   0.0000  -6.6893
  -5.500   0.0064   0.02020   0.01271  -0.1375  0.8218  0.0534  -2.6598   0.0000   0.0000   0.0000  22.3308
  -5.250   0.0327   0.01962   0.01195  -0.1373  0.8181  0.0562  -2.5309   0.0000   0.0000   0.0000   4.5662
  -5.000   0.0591   0.01892   0.01123  -0.1372  0.8146  0.0589  -2.3906   0.0000   0.0000   0.0000   2.6378
  -4.750   0.0869   0.01832   0.01050  -0.1372  0.8121  0.0620  -2.2619   0.0000   0.0000   0.0000   1.8696
  -4.500   0.1126   0.01779   0.01001  -0.1370  0.8081  0.0652  -2.1411   0.0000   0.0000   0.0000   1.4972
  -4.250   0.1397   0.01734   0.00950  -0.1369  0.8048  0.0698  -2.0181   0.0000   0.0000   0.0000   1.2531
  -4.000   0.1677   0.01689   0.00901  -0.1369  0.8023  0.0748  -1.8894   0.0000   0.0000   0.0000   1.0845
  -3.750   0.1931   0.01655   0.00875  -0.1367  0.7980  0.0806  -1.7673   0.0000   0.0000   0.0000   0.9725
  -3.500   0.2205   0.01619   0.00839  -0.1367  0.7948  0.0886  -1.6435   0.0000   0.0000   0.0000   0.8818
  -3.250   0.2488   0.01576   0.00798  -0.1368  0.7925  0.0987  -1.5296   0.0000   0.0000   0.0000   0.8096
  -3.000   0.2742   0.01554   0.00786  -0.1366  0.7878  0.1133  -1.4226   0.0000   0.0000   0.0000   0.7564
  -2.750   0.3020   0.01515   0.00759  -0.1367  0.7847  0.1387  -1.3108   0.0000   0.0000   0.0000   0.7095
  -2.500   0.3299   0.01474   0.00738  -0.1369  0.7820  0.1879  -1.1981   0.0000   0.0000   0.0000   0.6706
  -2.250   0.3555   0.01456   0.00743  -0.1369  0.7774  0.2493  -1.0965   0.0000   0.0000   0.0000   0.6395
  -2.000   0.3837   0.01430   0.00733  -0.1370  0.7745  0.3086  -0.9905   0.0000   0.0000   0.0000   0.6107
  -1.750   0.4108   0.01413   0.00734  -0.1370  0.7711  0.3679  -0.8882   0.0000   0.0000   0.0000   0.5865
  -1.500   0.4369   0.01397   0.00740  -0.1369  0.7668  0.4350  -0.7920   0.0000   0.0000   0.0000   0.5656
  -1.250   0.4646   0.01366   0.00734  -0.1368  0.7641  0.5213  -0.7840   0.0000   0.0000   0.0000   0.5461
  -1.000   0.4887   0.01349   0.00751  -0.1361  0.7599  0.6190  -0.8001   0.0000   0.0000   0.0000   0.5295
  -0.750   0.5124   0.01327   0.00759  -0.1350  0.7560  0.7216  -0.8167   0.0000   0.0000   0.0000   0.5139
  -0.500   0.5351   0.01297   0.00752  -0.1331  0.7534  0.8184  -0.8338   0.0000   0.0000   0.0000   0.4989
  -0.250   0.5614   0.01287   0.00762  -0.1322  0.7486  0.9377  -0.8523   0.0000   0.0000   0.0000   0.4850
   0.000   0.6028   0.01281   0.00745  -0.1350  0.7453  1.0001  -0.8796   0.0000   0.0000   0.0000   0.4731
   0.250   0.6326   0.01281   0.00732  -0.1353  0.7425  1.0001  -0.9015   0.0000   0.0000   0.0000   0.4626
   0.500   0.6575   0.01300   0.00748  -0.1350  0.7370  1.0001  -0.9203   0.0000   0.0000   0.0000   0.4536
   0.750   0.6873   0.01299   0.00735  -0.1353  0.7339  1.0001  -0.9433   0.0000   0.0000   0.0000   0.4448
   1.000   0.7135   0.01314   0.00746  -0.1351  0.7290  1.0001  -0.9641   0.0000   0.0000   0.0000   0.4370
   1.250   0.7419   0.01317   0.00742  -0.1352  0.7249  1.0001  -0.9874   0.0000   0.0000   0.0000   0.4295
   1.500   0.7715   0.01317   0.00734  -0.1355  0.7216  1.0001  -1.0121   0.0000   0.0000   0.0000   0.4225
   1.750   0.7970   0.01332   0.00748  -0.1352  0.7160  1.0001  -1.0344   0.0000   0.0000   0.0000   0.4161
   2.000   0.8275   0.01326   0.00734  -0.1355  0.7127  1.0001  -1.0613   0.0000   0.0000   0.0000   0.4100
   2.250   0.8526   0.01343   0.00751  -0.1351  0.7068  1.0001  -1.0848   0.0000   0.0000   0.0000   0.4044
   2.500   0.8824   0.01338   0.00739  -0.1354  0.7030  1.0001  -1.1129   0.0000   0.0000   0.0000   0.3990
   2.750   0.9083   0.01350   0.00753  -0.1351  0.6972  1.0001  -1.1388   0.0000   0.0000   0.0000   0.3940
   3.000   0.9377   0.01346   0.00743  -0.1353  0.6929  1.0001  -1.1685   0.0000   0.0000   0.0000   0.3892
   3.250   0.9638   0.01356   0.00754  -0.1350  0.6870  1.0001  -1.1967   0.0000   0.0000   0.0000   0.3847
   3.500   0.9931   0.01351   0.00745  -0.1352  0.6822  1.0001  -1.2288   0.0000   0.0000   0.0000   0.3804
   3.750   1.0188   0.01360   0.00756  -0.1348  0.6758  1.0001  -1.2593   0.0000   0.0000   0.0000   0.3762
   4.000   1.0487   0.01352   0.00743  -0.1351  0.6710  1.0001  -1.2949   0.0000   0.0000   0.0000   0.3724
   4.250   1.0736   0.01362   0.00757  -0.1346  0.6638  1.0001  -1.3279   0.0000   0.0000   0.0000   0.3686
   4.500   1.1018   0.01360   0.00753  -0.1346  0.6580  1.0001  -1.3657   0.0000   0.0000   0.0000   0.3650
   4.750   1.1284   0.01361   0.00755  -0.1343  0.6510  1.0001  -1.4042   0.0000   0.0000   0.0000   0.3616
   5.000   1.1538   0.01367   0.00764  -0.1339  0.6433  1.0001  -1.4440   0.0000   0.0000   0.0000   0.3582
   5.250   1.1809   0.01367   0.00764  -0.1337  0.6361  1.0001  -1.4884   0.0000   0.0000   0.0000   0.3551
   5.500   1.2080   0.01366   0.00761  -0.1334  0.6284  1.0001  -1.5372   0.0000   0.0000   0.0000   0.3520
   5.750   1.2322   0.01374   0.00774  -0.1328  0.6192  1.0001  -1.5896   0.0000   0.0000   0.0000   0.3489
   6.000   1.2567   0.01382   0.00784  -0.1322  0.6097  1.0001  -1.6567   0.0000   0.0000   0.0000   0.3460
   6.250   1.2810   0.01390   0.00794  -0.1315  0.5997  1.0001  -1.7340   0.0000   0.0000   0.0000   0.3431
   6.500   1.3049   0.01400   0.00807  -0.1308  0.5891  1.0001  -1.8168   0.0000   0.0000   0.0000   0.3403
   6.750   1.3282   0.01413   0.00821  -0.1299  0.5776  1.0001  -1.9039   0.0000   0.0000   0.0000   0.3375
   7.000   1.3509   0.01428   0.00835  -0.1290  0.5653  1.0001  -1.9967   0.0000   0.0000   0.0000   0.3348
   7.250   1.3730   0.01446   0.00852  -0.1280  0.5521  1.0001  -2.0964   0.0000   0.0000   0.0000   0.3321
   7.500   1.3923   0.01471   0.00880  -0.1265  0.5366  1.0001  -2.1974   0.0000   0.0000   0.0000   0.3294
   7.750   1.4115   0.01500   0.00905  -0.1250  0.5207  1.0001  -2.3039   0.0000   0.0000   0.0000   0.3267
   8.000   1.4282   0.01536   0.00939  -0.1231  0.5033  1.0001  -2.4102   0.0000   0.0000   0.0000   0.3240
   8.250   1.4441   0.01579   0.00977  -0.1211  0.4860  1.0001  -2.5183   0.0000   0.0000   0.0000   0.3212
   8.500   1.4576   0.01628   0.01024  -0.1188  0.4681  1.0001  -2.6219   0.0000   0.0000   0.0000   0.3184
   8.750   1.4681   0.01683   0.01075  -0.1159  0.4510  1.0001  -2.7223   0.0000   0.0000   0.0000   0.3155
   9.000   1.4777   0.01748   0.01136  -0.1130  0.4338  1.0001  -2.8242   0.0000   0.0000   0.0000   0.3127
   9.250   1.4864   0.01822   0.01208  -0.1102  0.4162  1.0001  -2.9249   0.0000   0.0000   0.0000   0.3099
   9.500   1.4940   0.01908   0.01289  -0.1074  0.3988  1.0001  -3.0232   0.0000   0.0000   0.0000   0.3072
   9.750   1.5008   0.02004   0.01383  -0.1047  0.3807  1.0001  -3.1199   0.0000   0.0000   0.0000   0.3046
  10.000   1.5069   0.02113   0.01488  -0.1020  0.3624  1.0001  -3.2178   0.0000   0.0000   0.0000   0.3021
  10.250   1.5118   0.02235   0.01606  -0.0994  0.3438  1.0001  -3.3164   0.0000   0.0000   0.0000   0.2997
  10.500   1.5157   0.02372   0.01739  -0.0969  0.3250  1.0001  -3.4124   0.0000   0.0000   0.0000   0.2974
  10.750   1.5186   0.02523   0.01885  -0.0944  0.3059  1.0001  -3.5056   0.0000   0.0000   0.0000   0.2952
  11.000   1.5210   0.02686   0.02042  -0.0920  0.2863  1.0001  -3.5974   0.0000   0.0000   0.0000   0.2930
  11.250   1.5223   0.02862   0.02213  -0.0897  0.2667  1.0001  -3.6862   0.0000   0.0000   0.0000   0.2910
  11.500   1.5229   0.03051   0.02396  -0.0874  0.2469  1.0001  -3.7723   0.0000   0.0000   0.0000   0.2890
  11.750   1.5227   0.03251   0.02592  -0.0852  0.2271  1.0001  -3.8595   0.0000   0.0000   0.0000   0.2870
  12.000   1.5217   0.03465   0.02799  -0.0831  0.2075  1.0001  -3.9460   0.0000   0.0000   0.0000   0.2852
  12.250   1.5197   0.03693   0.03021  -0.0810  0.1884  1.0001  -4.0291   0.0000   0.0000   0.0000   0.2834
  12.500   1.5169   0.03936   0.03257  -0.0790  0.1699  1.0001  -4.1088   0.0000   0.0000   0.0000   0.2816
  12.750   1.5134   0.04195   0.03508  -0.0772  0.1525  1.0001  -4.1852   0.0000   0.0000   0.0000   0.2800
  13.000   1.5096   0.04468   0.03774  -0.0754  0.1363  1.0001  -4.2597   0.0000   0.0000   0.0000   0.2785
  13.250   1.5060   0.04748   0.04048  -0.0738  0.1219  1.0001  -4.3336   0.0000   0.0000   0.0000   0.2770
  13.500   1.5027   0.05031   0.04329  -0.0724  0.1094  1.0001  -4.4080   0.0000   0.0000   0.0000   0.2756
  13.750   1.4990   0.05328   0.04623  -0.0711  0.0993  1.0001  -4.4799   0.0000   0.0000   0.0000   0.2743
  14.000   1.4959   0.05626   0.04921  -0.0699  0.0907  1.0001  -4.5581   0.0000   0.0000   0.0000   0.2731
  14.250   1.4928   0.05933   0.05228  -0.0689  0.0838  1.0001  -4.6366   0.0000   0.0000   0.0000   0.2720
  14.500   1.4898   0.06241   0.05538  -0.0679  0.0779  1.0001  -4.7154   0.0000   0.0000   0.0000   0.2709
  14.750   1.4872   0.06554   0.05853  -0.0671  0.0729  1.0001  -4.7944   0.0000   0.0000   0.0000   0.2699
  15.000   1.4842   0.06875   0.06178  -0.0664  0.0686  1.0001  -4.8717   0.0000   0.0000   0.0000   0.2690
  15.250   1.4809   0.07205   0.06509  -0.0658  0.0650  1.0001  -4.9484   0.0000   0.0000   0.0000   0.2681
  15.500   1.4804   0.07509   0.06820  -0.0654  0.0613  1.0001  -5.0342   0.0000   0.0000   0.0000   0.2672
  15.750   1.4779   0.07834   0.07148  -0.0649  0.0584  1.0001  -5.1115   0.0000   0.0000   0.0000   0.2664
  16.000   1.4770   0.08144   0.07465  -0.0646  0.0556  1.0001  -5.1958   0.0000   0.0000   0.0000   0.2657
  16.250   1.4757   0.08459   0.07784  -0.0642  0.0532  1.0001  -5.2822   0.0000   0.0000   0.0000   0.2649
  16.500   1.4757   0.08767   0.08098  -0.0641  0.0508  1.0001  -5.3780   0.0000   0.0000   0.0000   0.2642
  16.750   1.4754   0.09069   0.08402  -0.0638  0.0488  1.0001  -5.4727   0.0000   0.0000   0.0000   0.2635
  17.000   1.4760   0.09372   0.08716  -0.0638  0.0466  1.0001  -5.5696   0.0000   0.0000   0.0000   0.2629
  17.250   1.4773   0.09642   0.08983  -0.0635  0.0450  1.0001  -5.6760   0.0000   0.0000   0.0000   0.2621
  17.500   1.4784   0.09938   0.09293  -0.0635  0.0433  1.0001  -5.7702   0.0000   0.0000   0.0000   0.2615
  17.750   1.4803   0.10220   0.09580  -0.0636  0.0417  1.0001  -5.8744   0.0000   0.0000   0.0000   0.2609
  18.000   1.4862   0.10406   0.09758  -0.0630  0.0403  1.0001  -6.0076   0.0000   0.0000   0.0000   0.2598
  18.250   1.4854   0.10750   0.10123  -0.0635  0.0389  1.0001  -6.0871   0.0000   0.0000   0.0000   0.2595
  18.500   1.4873   0.11041   0.10422  -0.0639  0.0376  1.0001  -6.1899   0.0000   0.0000   0.0000   0.2591
  18.750   1.4942   0.11219   0.10593  -0.0636  0.0363  1.0001  -6.3371   0.0000   0.0000   0.0000   0.2581
  19.000   1.4954   0.11516   0.10905  -0.0640  0.0353  1.0001  -6.4381   0.0000   0.0000   0.0000   0.2576
  19.250   1.4955   0.11840   0.11245  -0.0646  0.0343  1.0001  -6.5312   0.0000   0.0000   0.0000   0.2574
  19.500   1.4981   0.12113   0.11526  -0.0650  0.0333  1.0001  -6.6465   0.0000   0.0000   0.0000   0.2570
  19.750   1.5071   0.12250   0.11658  -0.0648  0.0324  1.0001  -6.8141   0.0000   0.0000   0.0000   0.2560
  20.000   1.5078   0.12554   0.11976  -0.0654  0.0316  1.0001  -6.9085   0.0000   0.0000   0.0000   0.2557


