xflr5 v6.61

 Calculated polar for: QX0026 thickness=13.65

 1 1 Reynolds number fixed          Mach number fixed         

 xtrf =   1.000 (top)        1.000 (bottom)
 Mach =   0.000     Re =     0.540 e 6     Ncrit =   9.000

  alpha     CL        CD       CDp       Cm    Top Xtr Bot Xtr   Cpmin    Chinge    XCp    
 ------- -------- --------- --------- -------- ------- ------- -------- --------- ---------
 -10.000  -0.3554   0.05415   0.05122  -0.1012  0.8309  0.0230  -4.6349   0.0000   0.0000   0.0000  -0.0580
  -9.750  -0.4165   0.03078   0.02673  -0.1289  0.8229  0.0225  -5.6510   0.0000   0.0000   0.0000  -0.0793
  -9.500  -0.4072   0.02683   0.02218  -0.1303  0.8190  0.0230  -5.6893   0.0000   0.0000   0.0000  -0.0897
  -9.250  -0.3910   0.02415   0.01906  -0.1308  0.8151  0.0236  -5.6203   0.0000   0.0000   0.0000  -0.1045
  -9.000  -0.3686   0.02289   0.01770  -0.1310  0.8120  0.0241  -5.4284   0.0000   0.0000   0.0000  -0.1258
  -8.750  -0.3445   0.02195   0.01665  -0.1312  0.8084  0.0246  -5.2297   0.0000   0.0000   0.0000  -0.1517
  -8.500  -0.3201   0.02099   0.01556  -0.1314  0.8051  0.0251  -5.0397   0.0000   0.0000   0.0000  -0.1819
  -8.250  -0.2956   0.01992   0.01426  -0.1314  0.8023  0.0258  -4.8669   0.0000   0.0000   0.0000  -0.2171
  -8.000  -0.2706   0.01886   0.01299  -0.1315  0.7989  0.0265  -4.7001   0.0000   0.0000   0.0000  -0.2594
  -7.750  -0.2445   0.01809   0.01198  -0.1315  0.7956  0.0272  -4.5216   0.0000   0.0000   0.0000  -0.3129
  -7.500  -0.2196   0.01694   0.01074  -0.1316  0.7930  0.0280  -4.3396   0.0000   0.0000   0.0000  -0.3761
  -7.250  -0.1926   0.01650   0.01028  -0.1317  0.7899  0.0289  -4.1252   0.0000   0.0000   0.0000  -0.4629
  -7.000  -0.1656   0.01600   0.00968  -0.1318  0.7867  0.0300  -3.9258   0.0000   0.0000   0.0000  -0.5786
  -6.750  -0.1382   0.01547   0.00899  -0.1319  0.7840  0.0310  -3.7582   0.0000   0.0000   0.0000  -0.7410
  -6.500  -0.1117   0.01470   0.00814  -0.1319  0.7813  0.0320  -3.5979   0.0000   0.0000   0.0000  -0.9747
  -6.250  -0.0845   0.01425   0.00769  -0.1320  0.7781  0.0331  -3.4159   0.0000   0.0000   0.0000  -1.3685
  -6.000  -0.0567   0.01387   0.00724  -0.1321  0.7753  0.0345  -3.2402   0.0000   0.0000   0.0000  -2.1586
  -5.750  -0.0285   0.01357   0.00681  -0.1322  0.7729  0.0360  -3.0681   0.0000   0.0000   0.0000  -4.5388
  -5.500  -0.0015   0.01304   0.00634  -0.1323  0.7697  0.0377  -2.8965   0.0000   0.0000   0.0000  -90.2402
  -5.250   0.0265   0.01274   0.00599  -0.1325  0.7667  0.0396  -2.7261   0.0000   0.0000   0.0000   5.3857
  -5.000   0.0544   0.01234   0.00553  -0.1326  0.7642  0.0415  -2.5656   0.0000   0.0000   0.0000   2.7514
  -4.750   0.0825   0.01206   0.00525  -0.1327  0.7615  0.0438  -2.4117   0.0000   0.0000   0.0000   1.9000
  -4.500   0.1105   0.01177   0.00493  -0.1328  0.7582  0.0466  -2.2651   0.0000   0.0000   0.0000   1.4811
  -4.250   0.1388   0.01152   0.00467  -0.1330  0.7554  0.0497  -2.1151   0.0000   0.0000   0.0000   1.2296
  -4.000   0.1673   0.01124   0.00436  -0.1332  0.7531  0.0532  -1.9708   0.0000   0.0000   0.0000   1.0628
  -3.750   0.1954   0.01102   0.00414  -0.1333  0.7497  0.0578  -1.8283   0.0000   0.0000   0.0000   0.9455
  -3.500   0.2239   0.01080   0.00393  -0.1335  0.7466  0.0634  -1.6909   0.0000   0.0000   0.0000   0.8570
  -3.250   0.2525   0.01058   0.00370  -0.1337  0.7439  0.0706  -1.5637   0.0000   0.0000   0.0000   0.7882
  -3.000   0.2810   0.01038   0.00354  -0.1339  0.7409  0.0811  -1.4387   0.0000   0.0000   0.0000   0.7337
  -2.750   0.3093   0.01015   0.00339  -0.1341  0.7375  0.0979  -1.3163   0.0000   0.0000   0.0000   0.6894
  -2.500   0.3378   0.00991   0.00324  -0.1344  0.7346  0.1274  -1.1948   0.0000   0.0000   0.0000   0.6524
  -2.250   0.3663   0.00969   0.00315  -0.1346  0.7319  0.1699  -1.0838   0.0000   0.0000   0.0000   0.6212
  -2.000   0.3944   0.00949   0.00311  -0.1348  0.7282  0.2142  -0.9762   0.0000   0.0000   0.0000   0.5948
  -1.750   0.4230   0.00932   0.00305  -0.1351  0.7251  0.2566  -0.8697   0.0000   0.0000   0.0000   0.5715
  -1.500   0.4519   0.00918   0.00299  -0.1354  0.7224  0.2996  -0.7865   0.0000   0.0000   0.0000   0.5511
  -1.250   0.4798   0.00902   0.00299  -0.1355  0.7186  0.3465  -0.8040   0.0000   0.0000   0.0000   0.5335
  -1.000   0.5082   0.00885   0.00297  -0.1358  0.7152  0.4019  -0.8224   0.0000   0.0000   0.0000   0.5176
  -0.750   0.5368   0.00867   0.00294  -0.1360  0.7124  0.4693  -0.8414   0.0000   0.0000   0.0000   0.5033
  -0.500   0.5642   0.00847   0.00299  -0.1361  0.7086  0.5491  -0.8601   0.0000   0.0000   0.0000   0.4907
  -0.250   0.5914   0.00824   0.00303  -0.1360  0.7050  0.6415  -0.8793   0.0000   0.0000   0.0000   0.4790
   0.000   0.6186   0.00807   0.00306  -0.1357  0.7020  0.7270  -0.8991   0.0000   0.0000   0.0000   0.4681
   0.250   0.6437   0.00790   0.00313  -0.1350  0.6979  0.7988  -0.9182   0.0000   0.0000   0.0000   0.4581
   0.500   0.6660   0.00770   0.00315  -0.1335  0.6942  0.8867  -0.9365   0.0000   0.0000   0.0000   0.4483
   0.750   0.7059   0.00757   0.00306  -0.1357  0.6910  1.0001  -0.9650   0.0000   0.0000   0.0000   0.4399
   1.000   0.7336   0.00761   0.00309  -0.1358  0.6864  1.0001  -0.9869   0.0000   0.0000   0.0000   0.4323
   1.250   0.7620   0.00766   0.00307  -0.1359  0.6826  1.0001  -1.0101   0.0000   0.0000   0.0000   0.4253
   1.500   0.7901   0.00772   0.00309  -0.1360  0.6785  1.0001  -1.0337   0.0000   0.0000   0.0000   0.4187
   1.750   0.8181   0.00777   0.00311  -0.1361  0.6738  1.0001  -1.0579   0.0000   0.0000   0.0000   0.4126
   2.000   0.8467   0.00783   0.00312  -0.1363  0.6700  1.0001  -1.0833   0.0000   0.0000   0.0000   0.4069
   2.250   0.8741   0.00788   0.00317  -0.1363  0.6647  1.0001  -1.1087   0.0000   0.0000   0.0000   0.4015
   2.500   0.9024   0.00794   0.00318  -0.1364  0.6603  1.0001  -1.1356   0.0000   0.0000   0.0000   0.3964
   2.750   0.9299   0.00800   0.00325  -0.1364  0.6547  1.0001  -1.1628   0.0000   0.0000   0.0000   0.3916
   3.000   0.9579   0.00806   0.00327  -0.1364  0.6498  1.0001  -1.1915   0.0000   0.0000   0.0000   0.3871
   3.250   0.9851   0.00813   0.00335  -0.1364  0.6437  1.0001  -1.2208   0.0000   0.0000   0.0000   0.3828
   3.500   1.0128   0.00821   0.00339  -0.1364  0.6383  1.0001  -1.2519   0.0000   0.0000   0.0000   0.3787
   3.750   1.0397   0.00827   0.00348  -0.1363  0.6314  1.0001  -1.2836   0.0000   0.0000   0.0000   0.3748
   4.000   1.0669   0.00836   0.00355  -0.1362  0.6248  1.0001  -1.3172   0.0000   0.0000   0.0000   0.3711
   4.250   1.0938   0.00845   0.00362  -0.1361  0.6178  1.0001  -1.3523   0.0000   0.0000   0.0000   0.3675
   4.500   1.1203   0.00854   0.00373  -0.1359  0.6097  1.0001  -1.3891   0.0000   0.0000   0.0000   0.3641
   4.750   1.1468   0.00865   0.00383  -0.1358  0.6015  1.0001  -1.4279   0.0000   0.0000   0.0000   0.3608
   5.000   1.1729   0.00878   0.00395  -0.1355  0.5928  1.0001  -1.4691   0.0000   0.0000   0.0000   0.3576
   5.250   1.1986   0.00891   0.00407  -0.1352  0.5833  1.0001  -1.5132   0.0000   0.0000   0.0000   0.3545
   5.500   1.2239   0.00907   0.00421  -0.1348  0.5728  1.0001  -1.5615   0.0000   0.0000   0.0000   0.3515
   5.750   1.2488   0.00924   0.00437  -0.1344  0.5613  1.0001  -1.6181   0.0000   0.0000   0.0000   0.3486
   6.000   1.2732   0.00943   0.00455  -0.1338  0.5486  1.0001  -1.6910   0.0000   0.0000   0.0000   0.3458
   6.250   1.2968   0.00965   0.00474  -0.1332  0.5345  1.0001  -1.7704   0.0000   0.0000   0.0000   0.3430
   6.500   1.3191   0.00993   0.00498  -0.1323  0.5194  1.0001  -1.8531   0.0000   0.0000   0.0000   0.3402
   6.750   1.3409   0.01023   0.00524  -0.1313  0.5021  1.0001  -1.9399   0.0000   0.0000   0.0000   0.3375
   7.000   1.3611   0.01060   0.00554  -0.1301  0.4839  1.0001  -2.0301   0.0000   0.0000   0.0000   0.3348
   7.250   1.3798   0.01103   0.00589  -0.1286  0.4650  1.0001  -2.1252   0.0000   0.0000   0.0000   0.3320
   7.500   1.3983   0.01146   0.00626  -0.1271  0.4459  1.0001  -2.2275   0.0000   0.0000   0.0000   0.3294
   7.750   1.4156   0.01192   0.00666  -0.1254  0.4277  1.0001  -2.3308   0.0000   0.0000   0.0000   0.3267
   8.000   1.4302   0.01243   0.00710  -0.1233  0.4102  1.0001  -2.4346   0.0000   0.0000   0.0000   0.3239
   8.250   1.4439   0.01295   0.00758  -0.1210  0.3924  1.0001  -2.5375   0.0000   0.0000   0.0000   0.3211
   8.500   1.4567   0.01356   0.00813  -0.1187  0.3745  1.0001  -2.6396   0.0000   0.0000   0.0000   0.3184
   8.750   1.4682   0.01427   0.00877  -0.1163  0.3562  1.0001  -2.7460   0.0000   0.0000   0.0000   0.3157
   9.000   1.4791   0.01506   0.00950  -0.1140  0.3372  1.0001  -2.8516   0.0000   0.0000   0.0000   0.3131
   9.250   1.4893   0.01594   0.01032  -0.1117  0.3176  1.0001  -2.9568   0.0000   0.0000   0.0000   0.3106
   9.500   1.4986   0.01694   0.01124  -0.1094  0.2978  1.0001  -3.0601   0.0000   0.0000   0.0000   0.3082
   9.750   1.5071   0.01804   0.01227  -0.1072  0.2777  1.0001  -3.1629   0.0000   0.0000   0.0000   0.3059
  10.000   1.5146   0.01927   0.01341  -0.1050  0.2576  1.0001  -3.2694   0.0000   0.0000   0.0000   0.3036
  10.250   1.5214   0.02058   0.01464  -0.1028  0.2377  1.0001  -3.3749   0.0000   0.0000   0.0000   0.3015
  10.500   1.5279   0.02196   0.01595  -0.1007  0.2179  1.0001  -3.4799   0.0000   0.0000   0.0000   0.2993
  10.750   1.5336   0.02344   0.01734  -0.0986  0.1986  1.0001  -3.5830   0.0000   0.0000   0.0000   0.2972
  11.000   1.5384   0.02501   0.01882  -0.0965  0.1799  1.0001  -3.6843   0.0000   0.0000   0.0000   0.2952
  11.250   1.5426   0.02666   0.02039  -0.0944  0.1619  1.0001  -3.7840   0.0000   0.0000   0.0000   0.2932
  11.500   1.5462   0.02837   0.02204  -0.0924  0.1452  1.0001  -3.8863   0.0000   0.0000   0.0000   0.2913
  11.750   1.5495   0.03015   0.02374  -0.0904  0.1296  1.0001  -3.9908   0.0000   0.0000   0.0000   0.2894
  12.000   1.5524   0.03199   0.02552  -0.0885  0.1152  1.0001  -4.0944   0.0000   0.0000   0.0000   0.2875
  12.250   1.5550   0.03387   0.02735  -0.0866  0.1021  1.0001  -4.1976   0.0000   0.0000   0.0000   0.2858
  12.500   1.5578   0.03580   0.02924  -0.0849  0.0907  1.0001  -4.3017   0.0000   0.0000   0.0000   0.2840
  12.750   1.5604   0.03781   0.03123  -0.0832  0.0811  1.0001  -4.4052   0.0000   0.0000   0.0000   0.2824
  13.000   1.5636   0.03981   0.03322  -0.0817  0.0728  1.0001  -4.5113   0.0000   0.0000   0.0000   0.2808
  13.250   1.5663   0.04190   0.03531  -0.0802  0.0661  1.0001  -4.6171   0.0000   0.0000   0.0000   0.2792
  13.500   1.5691   0.04405   0.03746  -0.0788  0.0604  1.0001  -4.7300   0.0000   0.0000   0.0000   0.2777
  13.750   1.5722   0.04623   0.03966  -0.0776  0.0556  1.0001  -4.8444   0.0000   0.0000   0.0000   0.2763
  14.000   1.5751   0.04846   0.04192  -0.0764  0.0515  1.0001  -4.9588   0.0000   0.0000   0.0000   0.2750
  14.250   1.5772   0.05081   0.04430  -0.0753  0.0481  1.0001  -5.0697   0.0000   0.0000   0.0000   0.2736
  14.500   1.5782   0.05333   0.04685  -0.0743  0.0451  1.0001  -5.1766   0.0000   0.0000   0.0000   0.2724
  14.750   1.5813   0.05569   0.04928  -0.0734  0.0424  1.0001  -5.2922   0.0000   0.0000   0.0000   0.2712
  15.000   1.5800   0.05858   0.05219  -0.0724  0.0403  1.0001  -5.3882   0.0000   0.0000   0.0000   0.2701
  15.250   1.5834   0.06099   0.05469  -0.0717  0.0381  1.0001  -5.5057   0.0000   0.0000   0.0000   0.2690
  15.500   1.5814   0.06402   0.05776  -0.0710  0.0364  1.0001  -5.6056   0.0000   0.0000   0.0000   0.2680
  15.750   1.5826   0.06676   0.06059  -0.0704  0.0347  1.0001  -5.7211   0.0000   0.0000   0.0000   0.2670
  16.000   1.5825   0.06971   0.06360  -0.0699  0.0331  1.0001  -5.8315   0.0000   0.0000   0.0000   0.2661
  16.250   1.5774   0.07331   0.06726  -0.0695  0.0319  1.0001  -5.9148   0.0000   0.0000   0.0000   0.2654
  16.500   1.5789   0.07616   0.07021  -0.0692  0.0306  1.0001  -6.0318   0.0000   0.0000   0.0000   0.2646
  16.750   1.5776   0.07938   0.07350  -0.0690  0.0295  1.0001  -6.1351   0.0000   0.0000   0.0000   0.2639
  17.000   1.5720   0.08318   0.07736  -0.0689  0.0287  1.0001  -6.2149   0.0000   0.0000   0.0000   0.2634
  17.250   1.5673   0.08694   0.08121  -0.0689  0.0278  1.0001  -6.2959   0.0000   0.0000   0.0000   0.2629
  17.500   1.5661   0.09029   0.08467  -0.0690  0.0269  1.0001  -6.3967   0.0000   0.0000   0.0000   0.2624
  17.750   1.5636   0.09385   0.08831  -0.0692  0.0261  1.0001  -6.4913   0.0000   0.0000   0.0000   0.2620
  18.000   1.5589   0.09776   0.09229  -0.0695  0.0254  1.0001  -6.5728   0.0000   0.0000   0.0000   0.2617
  18.250   1.5495   0.10232   0.09690  -0.0701  0.0248  1.0001  -6.6234   0.0000   0.0000   0.0000   0.2618
  18.500   1.5472   0.10594   0.10064  -0.0706  0.0241  1.0001  -6.7172   0.0000   0.0000   0.0000   0.2615
  18.750   1.5445   0.10965   0.10445  -0.0712  0.0235  1.0001  -6.8137   0.0000   0.0000   0.0000   0.2614
  19.000   1.5411   0.11351   0.10840  -0.0720  0.0228  1.0001  -6.9048   0.0000   0.0000   0.0000   0.2613
  19.250   1.5369   0.11751   0.11248  -0.0729  0.0223  1.0001  -6.9904   0.0000   0.0000   0.0000   0.2614
  19.500   1.5310   0.12177   0.11680  -0.0740  0.0218  1.0001  -7.0628   0.0000   0.0000   0.0000   0.2617
  19.750   1.5232   0.12628   0.12135  -0.0752  0.0213  1.0001  -7.1166   0.0000   0.0000   0.0000   0.2621
  20.000   1.5214   0.13003   0.12522  -0.0764  0.0209  1.0001  -7.2098   0.0000   0.0000   0.0000   0.2622


