xflr5 v6.61

 Calculated polar for: QX0026 thickness=13.98

 1 1 Reynolds number fixed          Mach number fixed         

 xtrf =   1.000 (top)        1.000 (bottom)
 Mach =   0.000     Re =     0.500 e 6     Ncrit =   9.000

  alpha     CL        CD       CDp       Cm    Top Xtr Bot Xtr   Cpmin    Chinge    XCp    
 ------- -------- --------- --------- -------- ------- ------- -------- --------- ---------
  -5.000   0.0239   0.01237   0.00549  -0.1282  0.7690  0.0545  -2.3880   0.0000   0.0000   0.0000   5.7593
  -4.500   0.0808   0.01185   0.00492  -0.1285  0.7625  0.0610  -2.1220   0.0000   0.0000   0.0000   1.8798
  -4.000   0.1378   0.01139   0.00444  -0.1288  0.7556  0.0695  -1.8638   0.0000   0.0000   0.0000   1.2050
  -3.500   0.1952   0.01096   0.00401  -0.1292  0.7493  0.0815  -1.6262   0.0000   0.0000   0.0000   0.9242
  -3.000   0.2527   0.01055   0.00366  -0.1296  0.7425  0.0995  -1.3989   0.0000   0.0000   0.0000   0.7708
  -2.500   0.3100   0.01015   0.00340  -0.1300  0.7352  0.1362  -1.1852   0.0000   0.0000   0.0000   0.6745
  -2.000   0.3674   0.00975   0.00323  -0.1305  0.7283  0.2095  -0.9874   0.0000   0.0000   0.0000   0.6083
  -1.500   0.4252   0.00947   0.00313  -0.1310  0.7213  0.2823  -0.8008   0.0000   0.0000   0.0000   0.5597
  -1.000   0.4825   0.00921   0.00309  -0.1314  0.7133  0.3583  -0.8087   0.0000   0.0000   0.0000   0.5228
  -0.500   0.5397   0.00893   0.00308  -0.1318  0.7054  0.4553  -0.8493   0.0000   0.0000   0.0000   0.4936
   0.000   0.5966   0.00861   0.00312  -0.1321  0.6977  0.5849  -0.8915   0.0000   0.0000   0.0000   0.4699
   0.500   0.6511   0.00825   0.00321  -0.1317  0.6895  0.7468  -0.9346   0.0000   0.0000   0.0000   0.4499
   1.000   0.6955   0.00787   0.00328  -0.1284  0.6804  0.9260  -0.9762   0.0000   0.0000   0.0000   0.4316
   1.500   0.7610   0.00787   0.00322  -0.1303  0.6706  1.0001  -1.0320   0.0000   0.0000   0.0000   0.4176
   2.000   0.8177   0.00799   0.00326  -0.1305  0.6602  1.0001  -1.0845   0.0000   0.0000   0.0000   0.4053
   2.500   0.8741   0.00812   0.00333  -0.1306  0.6494  1.0001  -1.1402   0.0000   0.0000   0.0000   0.3945
   3.000   0.9301   0.00826   0.00341  -0.1307  0.6376  1.0001  -1.2024   0.0000   0.0000   0.0000   0.3850
   3.500   0.9855   0.00843   0.00352  -0.1306  0.6243  1.0001  -1.2663   0.0000   0.0000   0.0000   0.3764
   4.000   1.0401   0.00860   0.00369  -0.1305  0.6090  1.0001  -1.3341   0.0000   0.0000   0.0000   0.3686
   4.500   1.0941   0.00883   0.00388  -0.1302  0.5931  1.0001  -1.4161   0.0000   0.0000   0.0000   0.3615
   5.000   1.1465   0.00910   0.00411  -0.1296  0.5722  1.0001  -1.4985   0.0000   0.0000   0.0000   0.3550
   5.500   1.1976   0.00944   0.00440  -0.1289  0.5497  1.0001  -1.6037   0.0000   0.0000   0.0000   0.3488
   6.000   1.2470   0.00986   0.00477  -0.1279  0.5241  1.0001  -1.7282   0.0000   0.0000   0.0000   0.3431
   6.500   1.2930   0.01043   0.00524  -0.1263  0.4926  1.0001  -1.8972   0.0000   0.0000   0.0000   0.3375
   7.000   1.3366   0.01112   0.00582  -0.1244  0.4611  1.0001  -2.0769   0.0000   0.0000   0.0000   0.3321
   7.500   1.3762   0.01194   0.00653  -0.1218  0.4254  1.0001  -2.2630   0.0000   0.0000   0.0000   0.3269
   8.000   1.4102   0.01294   0.00737  -0.1184  0.3878  1.0001  -2.4503   0.0000   0.0000   0.0000   0.3215
   8.500   1.4387   0.01403   0.00836  -0.1141  0.3554  1.0001  -2.6403   0.0000   0.0000   0.0000   0.3161
   9.000   1.4650   0.01538   0.00961  -0.1099  0.3227  1.0001  -2.8338   0.0000   0.0000   0.0000   0.3110
   9.500   1.4888   0.01704   0.01116  -0.1059  0.2892  1.0001  -3.0313   0.0000   0.0000   0.0000   0.3063
  10.000   1.5097   0.01905   0.01306  -0.1019  0.2551  1.0001  -3.2305   0.0000   0.0000   0.0000   0.3018
  10.500   1.5272   0.02146   0.01534  -0.0980  0.2206  1.0001  -3.4293   0.0000   0.0000   0.0000   0.2976
  11.000   1.5411   0.02427   0.01800  -0.0942  0.1870  1.0001  -3.6207   0.0000   0.0000   0.0000   0.2936
  11.500   1.5519   0.02744   0.02104  -0.0903  0.1547  1.0001  -3.8159   0.0000   0.0000   0.0000   0.2897
  12.000   1.5607   0.03089   0.02438  -0.0867  0.1269  1.0001  -4.0072   0.0000   0.0000   0.0000   0.2861
  12.500   1.5673   0.03462   0.02803  -0.0832  0.1027  1.0001  -4.1924   0.0000   0.0000   0.0000   0.2826
  13.000   1.5719   0.03872   0.03208  -0.0799  0.0849  1.0001  -4.3780   0.0000   0.0000   0.0000   0.2794
  13.500   1.5773   0.04298   0.03635  -0.0772  0.0717  1.0001  -4.5724   0.0000   0.0000   0.0000   0.2764
  14.000   1.5819   0.04754   0.04094  -0.0748  0.0618  1.0001  -4.7647   0.0000   0.0000   0.0000   0.2737
  14.500   1.5871   0.05223   0.04571  -0.0728  0.0545  1.0001  -4.9595   0.0000   0.0000   0.0000   0.2712
  15.000   1.5897   0.05743   0.05101  -0.0711  0.0494  1.0001  -5.1441   0.0000   0.0000   0.0000   0.2690
  15.500   1.5891   0.06315   0.05684  -0.0697  0.0455  1.0001  -5.3275   0.0000   0.0000   0.0000   0.2670
  16.000   1.5855   0.06945   0.06324  -0.0687  0.0423  1.0001  -5.4986   0.0000   0.0000   0.0000   0.2653
  16.500   1.5851   0.07558   0.06955  -0.0682  0.0396  1.0001  -5.6816   0.0000   0.0000   0.0000   0.2638
  17.000   1.5742   0.08314   0.07723  -0.0680  0.0376  1.0001  -5.8140   0.0000   0.0000   0.0000   0.2628
  17.500   1.5725   0.08976   0.08404  -0.0682  0.0355  1.0001  -5.9869   0.0000   0.0000   0.0000   0.2618
  18.000   1.5609   0.09782   0.09221  -0.0690  0.0338  1.0001  -6.1102   0.0000   0.0000   0.0000   0.2614
  18.500   1.5563   0.10505   0.09965  -0.0700  0.0321  1.0001  -6.2645   0.0000   0.0000   0.0000   0.2609
  19.000   1.5494   0.11272   0.10747  -0.0714  0.0306  1.0001  -6.4159   0.0000   0.0000   0.0000   0.2608
  19.500   1.5395   0.12082   0.11569  -0.0733  0.0294  1.0001  -6.5427   0.0000   0.0000   0.0000   0.2610
  20.000   1.5359   0.12824   0.12332  -0.0755  0.0281  1.0001  -6.6993   0.0000   0.0000   0.0000   0.2612


