xflr5 v6.61

 Calculated polar for: QX0026 thickness=13.65

 1 1 Reynolds number fixed          Mach number fixed         

 xtrf =   1.000 (top)        1.000 (bottom)
 Mach =   0.000     Re =     0.500 e 6     Ncrit =   9.000

  alpha     CL        CD       CDp       Cm    Top Xtr Bot Xtr   Cpmin    Chinge    XCp    
 ------- -------- --------- --------- -------- ------- ------- -------- --------- ---------
  -5.000   0.0548   0.01277   0.00591  -0.1328  0.7681  0.0426  -2.5501   0.0000   0.0000   0.0000   2.7389
  -4.500   0.1112   0.01217   0.00522  -0.1331  0.7630  0.0479  -2.2525   0.0000   0.0000   0.0000   1.4757
  -4.000   0.1672   0.01161   0.00467  -0.1334  0.7565  0.0547  -1.9647   0.0000   0.0000   0.0000   1.0642
  -3.500   0.2240   0.01113   0.00418  -0.1337  0.7510  0.0652  -1.6861   0.0000   0.0000   0.0000   0.8576
  -3.000   0.2809   0.01069   0.00377  -0.1341  0.7448  0.0837  -1.4366   0.0000   0.0000   0.0000   0.7344
  -2.500   0.3374   0.01021   0.00349  -0.1345  0.7385  0.1326  -1.1946   0.0000   0.0000   0.0000   0.6533
  -2.000   0.3946   0.00978   0.00330  -0.1351  0.7328  0.2233  -0.9750   0.0000   0.0000   0.0000   0.5951
  -1.500   0.4510   0.00946   0.00324  -0.1354  0.7257  0.3101  -0.7853   0.0000   0.0000   0.0000   0.5519
  -1.000   0.5076   0.00913   0.00321  -0.1359  0.7193  0.4186  -0.8215   0.0000   0.0000   0.0000   0.5181
  -0.500   0.5636   0.00871   0.00321  -0.1361  0.7128  0.5748  -0.8594   0.0000   0.0000   0.0000   0.4910
   0.000   0.6164   0.00832   0.00333  -0.1354  0.7053  0.7497  -0.8974   0.0000   0.0000   0.0000   0.4684
   0.500   0.6632   0.00795   0.00338  -0.1328  0.6982  0.9235  -0.9346   0.0000   0.0000   0.0000   0.4482
   1.000   0.7337   0.00794   0.00327  -0.1359  0.6910  1.0001  -0.9866   0.0000   0.0000   0.0000   0.4325
   1.500   0.7897   0.00803   0.00329  -0.1361  0.6824  1.0001  -1.0330   0.0000   0.0000   0.0000   0.4189
   2.000   0.8456   0.00814   0.00335  -0.1362  0.6733  1.0001  -1.0821   0.0000   0.0000   0.0000   0.4070
   2.500   0.9013   0.00825   0.00341  -0.1363  0.6638  1.0001  -1.1344   0.0000   0.0000   0.0000   0.3965
   3.000   0.9568   0.00838   0.00350  -0.1363  0.6534  1.0001  -1.1903   0.0000   0.0000   0.0000   0.3872
   3.500   1.0117   0.00851   0.00361  -0.1363  0.6420  1.0001  -1.2506   0.0000   0.0000   0.0000   0.3787
   4.000   1.0661   0.00866   0.00373  -0.1362  0.6293  1.0001  -1.3162   0.0000   0.0000   0.0000   0.3711
   4.500   1.1195   0.00884   0.00391  -0.1358  0.6148  1.0001  -1.3880   0.0000   0.0000   0.0000   0.3641
   5.000   1.1719   0.00906   0.00413  -0.1354  0.5978  1.0001  -1.4678   0.0000   0.0000   0.0000   0.3576
   5.500   1.2230   0.00933   0.00439  -0.1347  0.5782  1.0001  -1.5601   0.0000   0.0000   0.0000   0.3515
   6.000   1.2722   0.00968   0.00472  -0.1337  0.5551  1.0001  -1.6889   0.0000   0.0000   0.0000   0.3457
   6.500   1.3187   0.01015   0.00513  -0.1322  0.5270  1.0001  -1.8515   0.0000   0.0000   0.0000   0.3402
   7.000   1.3608   0.01079   0.00567  -0.1300  0.4928  1.0001  -2.0286   0.0000   0.0000   0.0000   0.3347
   7.500   1.3976   0.01164   0.00639  -0.1270  0.4553  1.0001  -2.2251   0.0000   0.0000   0.0000   0.3293
   8.000   1.4300   0.01260   0.00723  -0.1232  0.4192  1.0001  -2.4329   0.0000   0.0000   0.0000   0.3238
   8.500   1.4557   0.01373   0.00826  -0.1184  0.3839  1.0001  -2.6359   0.0000   0.0000   0.0000   0.3183
   9.000   1.4777   0.01523   0.00963  -0.1136  0.3473  1.0001  -2.8462   0.0000   0.0000   0.0000   0.3130
   9.500   1.4971   0.01709   0.01137  -0.1091  0.3082  1.0001  -3.0543   0.0000   0.0000   0.0000   0.3081
  10.000   1.5129   0.01942   0.01355  -0.1046  0.2682  1.0001  -3.2624   0.0000   0.0000   0.0000   0.3035
  10.500   1.5254   0.02217   0.01613  -0.1003  0.2285  1.0001  -3.4700   0.0000   0.0000   0.0000   0.2991
  11.000   1.5357   0.02523   0.01904  -0.0961  0.1899  1.0001  -3.6733   0.0000   0.0000   0.0000   0.2950
  11.500   1.5430   0.02864   0.02229  -0.0919  0.1540  1.0001  -3.8724   0.0000   0.0000   0.0000   0.2911
  12.000   1.5485   0.03232   0.02583  -0.0880  0.1227  1.0001  -4.0772   0.0000   0.0000   0.0000   0.2874
  12.500   1.5529   0.03624   0.02965  -0.0843  0.0966  1.0001  -4.2797   0.0000   0.0000   0.0000   0.2838
  13.000   1.5571   0.04039   0.03376  -0.0811  0.0772  1.0001  -4.4828   0.0000   0.0000   0.0000   0.2806
  13.500   1.5619   0.04473   0.03810  -0.0782  0.0638  1.0001  -4.6954   0.0000   0.0000   0.0000   0.2776
  14.500   1.5703   0.05414   0.04764  -0.0737  0.0473  1.0001  -5.1353   0.0000   0.0000   0.0000   0.2723
  15.000   1.5725   0.05938   0.05297  -0.0720  0.0421  1.0001  -5.3474   0.0000   0.0000   0.0000   0.2700
  15.500   1.5724   0.06502   0.05874  -0.0705  0.0381  1.0001  -5.5530   0.0000   0.0000   0.0000   0.2680
  16.000   1.5695   0.07122   0.06508  -0.0695  0.0349  1.0001  -5.7556   0.0000   0.0000   0.0000   0.2662
  16.500   1.5638   0.07800   0.07197  -0.0688  0.0322  1.0001  -5.9437   0.0000   0.0000   0.0000   0.2648
  17.000   1.5615   0.08447   0.07864  -0.0686  0.0299  1.0001  -6.1460   0.0000   0.0000   0.0000   0.2635
  17.500   1.5488   0.09253   0.08681  -0.0688  0.0283  1.0001  -6.2897   0.0000   0.0000   0.0000   0.2628
  18.000   1.5456   0.09949   0.09400  -0.0694  0.0266  1.0001  -6.4809   0.0000   0.0000   0.0000   0.2621
  18.500   1.5367   0.10731   0.10195  -0.0705  0.0252  1.0001  -6.6401   0.0000   0.0000   0.0000   0.2618
  19.000   1.5275   0.11530   0.11012  -0.0721  0.0240  1.0001  -6.8016   0.0000   0.0000   0.0000   0.2618
  19.500   1.5220   0.12294   0.11794  -0.0740  0.0227  1.0001  -6.9842   0.0000   0.0000   0.0000   0.2619
  20.000   1.5143   0.13089   0.12601  -0.0763  0.0218  1.0001  -7.1487   0.0000   0.0000   0.0000   0.2625


