xflr5 v6.61

 Calculated polar for: QX0226

 1 1 Reynolds number fixed          Mach number fixed         

 xtrf =   1.000 (top)        1.000 (bottom)
 Mach =   0.000     Re =     0.620 e 6     Ncrit =   9.000

  alpha     CL        CD       CDp       Cm    Top Xtr Bot Xtr   Cpmin    Chinge    XCp    
 ------- -------- --------- --------- -------- ------- ------- -------- --------- ---------
 -10.000  -0.4773   0.02283   0.01778  -0.1314  0.8350  0.0238  -6.1269   0.0000   0.0000   0.0000  -0.0448
  -9.750  -0.4532   0.02198   0.01683  -0.1316  0.8315  0.0243  -5.9071   0.0000   0.0000   0.0000  -0.0603
  -9.500  -0.4298   0.02078   0.01539  -0.1319  0.8280  0.0249  -5.7303   0.0000   0.0000   0.0000  -0.0769
  -9.250  -0.4059   0.01960   0.01390  -0.1320  0.8249  0.0254  -5.5623   0.0000   0.0000   0.0000  -0.0957
  -9.000  -0.3805   0.01884   0.01315  -0.1322  0.8219  0.0258  -5.3425   0.0000   0.0000   0.0000  -0.1183
  -8.750  -0.3542   0.01829   0.01257  -0.1324  0.8184  0.0264  -5.1214   0.0000   0.0000   0.0000  -0.1453
  -8.500  -0.3279   0.01763   0.01178  -0.1325  0.8153  0.0271  -4.9179   0.0000   0.0000   0.0000  -0.1764
  -8.250  -0.3014   0.01695   0.01085  -0.1326  0.8127  0.0278  -4.7325   0.0000   0.0000   0.0000  -0.2132
  -8.000  -0.2752   0.01620   0.01014  -0.1327  0.8092  0.0284  -4.5359   0.0000   0.0000   0.0000  -0.2567
  -7.750  -0.2481   0.01571   0.00961  -0.1329  0.8060  0.0291  -4.3366   0.0000   0.0000   0.0000  -0.3115
  -7.500  -0.2207   0.01524   0.00902  -0.1330  0.8033  0.0300  -4.1469   0.0000   0.0000   0.0000  -0.3805
  -7.250  -0.1937   0.01466   0.00837  -0.1331  0.8003  0.0308  -3.9669   0.0000   0.0000   0.0000  -0.4679
  -7.000  -0.1662   0.01422   0.00794  -0.1333  0.7970  0.0317  -3.7826   0.0000   0.0000   0.0000  -0.5858
  -6.750  -0.1384   0.01381   0.00745  -0.1334  0.7940  0.0327  -3.6082   0.0000   0.0000   0.0000  -0.7527
  -6.500  -0.1108   0.01335   0.00692  -0.1336  0.7915  0.0338  -3.4369   0.0000   0.0000   0.0000  -1.0018
  -6.250  -0.0830   0.01300   0.00659  -0.1338  0.7882  0.0350  -3.2620   0.0000   0.0000   0.0000  -1.4212
  -6.000  -0.0547   0.01268   0.00618  -0.1339  0.7850  0.0365  -3.1041   0.0000   0.0000   0.0000  -2.2811
  -5.750  -0.0269   0.01228   0.00579  -0.1341  0.7823  0.0378  -2.9412   0.0000   0.0000   0.0000  -4.9086
  -5.500   0.0016   0.01203   0.00548  -0.1343  0.7794  0.0396  -2.7837   0.0000   0.0000   0.0000  85.9950
  -5.250   0.0296   0.01166   0.00515  -0.1345  0.7760  0.0414  -2.6252   0.0000   0.0000   0.0000   4.9264
  -5.000   0.0581   0.01139   0.00483  -0.1347  0.7730  0.0436  -2.4767   0.0000   0.0000   0.0000   2.6310
  -4.750   0.0867   0.01114   0.00456  -0.1349  0.7705  0.0460  -2.3297   0.0000   0.0000   0.0000   1.8457
  -4.500   0.1151   0.01087   0.00430  -0.1351  0.7671  0.0487  -2.1872   0.0000   0.0000   0.0000   1.4525
  -4.250   0.1438   0.01064   0.00406  -0.1353  0.7638  0.0519  -2.0464   0.0000   0.0000   0.0000   1.2126
  -4.000   0.1727   0.01045   0.00384  -0.1355  0.7610  0.0558  -1.9060   0.0000   0.0000   0.0000   1.0516
  -3.750   0.2014   0.01024   0.00364  -0.1358  0.7579  0.0608  -1.7742   0.0000   0.0000   0.0000   0.9375
  -3.500   0.2300   0.01000   0.00344  -0.1360  0.7543  0.0676  -1.6469   0.0000   0.0000   0.0000   0.8520
  -3.250   0.2589   0.00979   0.00325  -0.1362  0.7513  0.0780  -1.5211   0.0000   0.0000   0.0000   0.7849
  -3.000   0.2877   0.00957   0.00309  -0.1365  0.7482  0.0947  -1.3976   0.0000   0.0000   0.0000   0.7316
  -2.750   0.3163   0.00935   0.00298  -0.1368  0.7445  0.1204  -1.2784   0.0000   0.0000   0.0000   0.6882
  -2.500   0.3451   0.00915   0.00287  -0.1371  0.7412  0.1513  -1.1635   0.0000   0.0000   0.0000   0.6517
  -2.250   0.3740   0.00899   0.00279  -0.1373  0.7379  0.1827  -1.0507   0.0000   0.0000   0.0000   0.6209
  -2.000   0.4027   0.00883   0.00274  -0.1376  0.7339  0.2139  -0.9434   0.0000   0.0000   0.0000   0.5945
  -1.750   0.4316   0.00868   0.00267  -0.1379  0.7305  0.2502  -0.8404   0.0000   0.0000   0.0000   0.5716
  -1.500   0.4603   0.00853   0.00262  -0.1382  0.7269  0.2892  -0.7870   0.0000   0.0000   0.0000   0.5515
  -1.250   0.4889   0.00836   0.00260  -0.1384  0.7227  0.3389  -0.8052   0.0000   0.0000   0.0000   0.5339
  -1.000   0.5177   0.00817   0.00255  -0.1387  0.7192  0.3983  -0.8239   0.0000   0.0000   0.0000   0.5182
  -0.750   0.5461   0.00797   0.00257  -0.1389  0.7150  0.4693  -0.8431   0.0000   0.0000   0.0000   0.5043
  -0.500   0.5744   0.00779   0.00258  -0.1391  0.7109  0.5465  -0.8631   0.0000   0.0000   0.0000   0.4916
  -0.250   0.6027   0.00764   0.00260  -0.1392  0.7071  0.6116  -0.8834   0.0000   0.0000   0.0000   0.4799
   0.000   0.6305   0.00753   0.00266  -0.1392  0.7024  0.6730  -0.9041   0.0000   0.0000   0.0000   0.4693
   0.250   0.6586   0.00748   0.00267  -0.1391  0.6985  0.7180  -0.9262   0.0000   0.0000   0.0000   0.4594
   0.500   0.6860   0.00741   0.00272  -0.1390  0.6935  0.7555  -0.9483   0.0000   0.0000   0.0000   0.4503
   0.750   0.7136   0.00737   0.00274  -0.1388  0.6891  0.7909  -0.9710   0.0000   0.0000   0.0000   0.4419
   1.000   0.7402   0.00732   0.00279  -0.1384  0.6842  0.8252  -0.9943   0.0000   0.0000   0.0000   0.4340
   1.250   0.7660   0.00727   0.00281  -0.1378  0.6794  0.8614  -1.0181   0.0000   0.0000   0.0000   0.4266
   1.500   0.7897   0.00720   0.00284  -0.1367  0.6742  0.9060  -1.0409   0.0000   0.0000   0.0000   0.4194
   1.750   0.8192   0.00712   0.00279  -0.1368  0.6690  0.9723  -1.0682   0.0000   0.0000   0.0000   0.4130
   2.000   0.8506   0.00716   0.00281  -0.1376  0.6632  1.0000  -1.0981   0.0000   0.0000   0.0000   0.4075
   2.250   0.8793   0.00723   0.00283  -0.1378  0.6579  1.0000  -1.1269   0.0000   0.0000   0.0000   0.4021
   2.500   0.9076   0.00730   0.00288  -0.1380  0.6513  1.0000  -1.1560   0.0000   0.0000   0.0000   0.3971
   2.750   0.9358   0.00738   0.00293  -0.1381  0.6452  1.0000  -1.1865   0.0000   0.0000   0.0000   0.3923
   3.000   0.9638   0.00747   0.00298  -0.1382  0.6387  1.0000  -1.2182   0.0000   0.0000   0.0000   0.3878
   3.250   0.9916   0.00755   0.00306  -0.1383  0.6315  1.0000  -1.2503   0.0000   0.0000   0.0000   0.3836
   3.500   1.0193   0.00765   0.00313  -0.1383  0.6242  1.0000  -1.2842   0.0000   0.0000   0.0000   0.3795
   3.750   1.0467   0.00776   0.00321  -0.1383  0.6167  1.0000  -1.3207   0.0000   0.0000   0.0000   0.3756
   4.000   1.0738   0.00788   0.00330  -0.1382  0.6082  1.0000  -1.3574   0.0000   0.0000   0.0000   0.3719
   4.250   1.1007   0.00800   0.00340  -0.1381  0.5990  1.0000  -1.3974   0.0000   0.0000   0.0000   0.3683
   4.500   1.1273   0.00814   0.00352  -0.1380  0.5892  1.0000  -1.4385   0.0000   0.0000   0.0000   0.3649
   4.750   1.1536   0.00829   0.00364  -0.1378  0.5791  1.0000  -1.4807   0.0000   0.0000   0.0000   0.3616
   5.000   1.1794   0.00847   0.00378  -0.1375  0.5681  1.0000  -1.5263   0.0000   0.0000   0.0000   0.3584
   5.250   1.2049   0.00865   0.00394  -0.1372  0.5562  1.0000  -1.5733   0.0000   0.0000   0.0000   0.3553
   5.500   1.2300   0.00885   0.00412  -0.1368  0.5435  1.0000  -1.6233   0.0000   0.0000   0.0000   0.3523
   5.750   1.2543   0.00909   0.00431  -0.1362  0.5296  1.0000  -1.6775   0.0000   0.0000   0.0000   0.3494
   6.000   1.2779   0.00936   0.00453  -0.1356  0.5147  1.0000  -1.7399   0.0000   0.0000   0.0000   0.3465
   6.250   1.3008   0.00966   0.00477  -0.1348  0.4988  1.0000  -1.8094   0.0000   0.0000   0.0000   0.3437
   6.500   1.3228   0.00998   0.00504  -0.1339  0.4817  1.0000  -1.8838   0.0000   0.0000   0.0000   0.3409
   6.750   1.3436   0.01037   0.00535  -0.1328  0.4637  1.0000  -1.9592   0.0000   0.0000   0.0000   0.3382
   7.000   1.3631   0.01079   0.00570  -0.1316  0.4449  1.0000  -2.0379   0.0000   0.0000   0.0000   0.3354
   7.250   1.3815   0.01125   0.00608  -0.1301  0.4260  1.0000  -2.1166   0.0000   0.0000   0.0000   0.3327
   7.500   1.3990   0.01172   0.00648  -0.1285  0.4075  1.0000  -2.1968   0.0000   0.0000   0.0000   0.3300
   7.750   1.4139   0.01222   0.00691  -0.1264  0.3894  1.0000  -2.2736   0.0000   0.0000   0.0000   0.3272
   8.000   1.4286   0.01278   0.00740  -0.1244  0.3720  1.0000  -2.3508   0.0000   0.0000   0.0000   0.3245
   8.250   1.4427   0.01340   0.00796  -0.1224  0.3555  1.0000  -2.4528   0.0000   0.0000   0.0000   0.3218
   8.500   1.4574   0.01403   0.00854  -0.1206  0.3389  1.0000  -2.5600   0.0000   0.0000   0.0000   0.3193
   8.750   1.4710   0.01474   0.00919  -0.1187  0.3229  1.0000  -2.6658   0.0000   0.0000   0.0000   0.3169
   9.000   1.4839   0.01553   0.00992  -0.1168  0.3066  1.0000  -2.7710   0.0000   0.0000   0.0000   0.3145
   9.250   1.4966   0.01636   0.01069  -0.1149  0.2899  1.0000  -2.8770   0.0000   0.0000   0.0000   0.3121
   9.500   1.5082   0.01728   0.01155  -0.1130  0.2733  1.0000  -2.9839   0.0000   0.0000   0.0000   0.3099
  10.000   1.5298   0.01932   0.01346  -0.1093  0.2400  1.0000  -3.1985   0.0000   0.0000   0.0000   0.3055
  10.250   1.5399   0.02043   0.01451  -0.1074  0.2241  1.0000  -3.3053   0.0000   0.0000   0.0000   0.3033
  10.500   1.5488   0.02164   0.01565  -0.1055  0.2087  1.0000  -3.4099   0.0000   0.0000   0.0000   0.3012
  10.750   1.5582   0.02284   0.01679  -0.1037  0.1936  1.0000  -3.5168   0.0000   0.0000   0.0000   0.2992
  11.000   1.5664   0.02414   0.01804  -0.1018  0.1794  1.0000  -3.6209   0.0000   0.0000   0.0000   0.2972
  11.250   1.5740   0.02551   0.01936  -0.1000  0.1653  1.0000  -3.7240   0.0000   0.0000   0.0000   0.2952
  11.500   1.5812   0.02693   0.02072  -0.0982  0.1523  1.0000  -3.8267   0.0000   0.0000   0.0000   0.2933
  11.750   1.5878   0.02841   0.02216  -0.0964  0.1398  1.0000  -3.9283   0.0000   0.0000   0.0000   0.2914
  12.000   1.5940   0.02995   0.02366  -0.0946  0.1286  1.0000  -4.0291   0.0000   0.0000   0.0000   0.2896
  12.250   1.6004   0.03149   0.02518  -0.0929  0.1181  1.0000  -4.1314   0.0000   0.0000   0.0000   0.2878
  12.500   1.6060   0.03314   0.02679  -0.0912  0.1083  1.0000  -4.2315   0.0000   0.0000   0.0000   0.2860
  12.750   1.6112   0.03486   0.02850  -0.0895  0.0995  1.0000  -4.3320   0.0000   0.0000   0.0000   0.2843
  13.000   1.6161   0.03664   0.03026  -0.0880  0.0917  1.0000  -4.4347   0.0000   0.0000   0.0000   0.2827
  13.500   1.6260   0.04035   0.03397  -0.0851  0.0784  1.0000  -4.6411   0.0000   0.0000   0.0000   0.2796
  13.750   1.6309   0.04227   0.03590  -0.0838  0.0729  1.0000  -4.7450   0.0000   0.0000   0.0000   0.2781
  14.000   1.6358   0.04424   0.03789  -0.0826  0.0680  1.0000  -4.8490   0.0000   0.0000   0.0000   0.2766
  14.250   1.6400   0.04629   0.03998  -0.0814  0.0637  1.0000  -4.9511   0.0000   0.0000   0.0000   0.2752
  14.500   1.6433   0.04849   0.04220  -0.0803  0.0600  1.0000  -5.0500   0.0000   0.0000   0.0000   0.2739
  14.750   1.6466   0.05073   0.04447  -0.0792  0.0565  1.0000  -5.1491   0.0000   0.0000   0.0000   0.2726
  15.000   1.6503   0.05296   0.04675  -0.0783  0.0533  1.0000  -5.2500   0.0000   0.0000   0.0000   0.2714
  15.250   1.6519   0.05546   0.04928  -0.0773  0.0506  1.0000  -5.3427   0.0000   0.0000   0.0000   0.2702
  15.500   1.6548   0.05787   0.05175  -0.0765  0.0478  1.0000  -5.4425   0.0000   0.0000   0.0000   0.2691
  15.750   1.6563   0.06047   0.05440  -0.0758  0.0454  1.0000  -5.5540   0.0000   0.0000   0.0000   0.2680
  16.000   1.6567   0.06323   0.05721  -0.0751  0.0431  1.0000  -5.6650   0.0000   0.0000   0.0000   0.2670
  16.250   1.6578   0.06596   0.06000  -0.0745  0.0409  1.0000  -5.7794   0.0000   0.0000   0.0000   0.2660
  16.500   1.6554   0.06914   0.06322  -0.0739  0.0390  1.0000  -5.8769   0.0000   0.0000   0.0000   0.2651
  16.750   1.6561   0.07201   0.06617  -0.0735  0.0368  1.0000  -5.9889   0.0000   0.0000   0.0000   0.2642
  17.000   1.6524   0.07547   0.06968  -0.0732  0.0351  1.0000  -6.0788   0.0000   0.0000   0.0000   0.2635
  17.250   1.6511   0.07865   0.07294  -0.0730  0.0333  1.0000  -6.1807   0.0000   0.0000   0.0000   0.2628
  17.500   1.6459   0.08239   0.07674  -0.0729  0.0319  1.0000  -6.2617   0.0000   0.0000   0.0000   0.2623
  17.750   1.6435   0.08583   0.08027  -0.0729  0.0304  1.0000  -6.3560   0.0000   0.0000   0.0000   0.2617
  18.000   1.6364   0.08995   0.08444  -0.0731  0.0294  1.0000  -6.4245   0.0000   0.0000   0.0000   0.2614
  18.250   1.6328   0.09363   0.08823  -0.0733  0.0282  1.0000  -6.5099   0.0000   0.0000   0.0000   0.2610
  18.500   1.6279   0.09755   0.09223  -0.0738  0.0273  1.0000  -6.5880   0.0000   0.0000   0.0000   0.2608
  18.750   1.6193   0.10205   0.09678  -0.0745  0.0266  1.0000  -6.6438   0.0000   0.0000   0.0000   0.2608
  19.000   1.6152   0.10593   0.10077  -0.0751  0.0258  1.0000  -6.7220   0.0000   0.0000   0.0000   0.2607
  19.250   1.6106   0.10993   0.10486  -0.0760  0.0251  1.0000  -6.7977   0.0000   0.0000   0.0000   0.2607
  19.500   1.6046   0.11420   0.10919  -0.0771  0.0245  1.0000  -6.8664   0.0000   0.0000   0.0000   0.2609
  19.750   1.5956   0.11893   0.11398  -0.0785  0.0240  1.0000  -6.9137   0.0000   0.0000   0.0000   0.2614
  20.000   1.5930   0.12273   0.11790  -0.0797  0.0234  1.0000  -6.9982   0.0000   0.0000   0.0000   0.2616


