xflr5 v6.61

 Calculated polar for: QX0226

 1 1 Reynolds number fixed          Mach number fixed         

 xtrf =   1.000 (top)        1.000 (bottom)
 Mach =   0.000     Re =     0.780 e 6     Ncrit =   9.000

  alpha     CL        CD       CDp       Cm    Top Xtr Bot Xtr   Cpmin    Chinge    XCp    
 ------- -------- --------- --------- -------- ------- ------- -------- --------- ---------
 -10.000  -0.4906   0.01925   0.01404  -0.1307  0.8223  0.0221  -6.3601   0.0000   0.0000   0.0000  -0.0356
  -9.750  -0.4653   0.01849   0.01314  -0.1309  0.8188  0.0226  -6.1415   0.0000   0.0000   0.0000  -0.0508
  -9.500  -0.4399   0.01770   0.01215  -0.1310  0.8156  0.0231  -5.9351   0.0000   0.0000   0.0000  -0.0676
  -9.250  -0.4144   0.01699   0.01142  -0.1312  0.8129  0.0235  -5.7097   0.0000   0.0000   0.0000  -0.0866
  -9.000  -0.3878   0.01648   0.01089  -0.1314  0.8096  0.0239  -5.4790   0.0000   0.0000   0.0000  -0.1094
  -8.750  -0.3609   0.01599   0.01031  -0.1315  0.8064  0.0245  -5.2556   0.0000   0.0000   0.0000  -0.1357
  -8.500  -0.3339   0.01549   0.00967  -0.1317  0.8035  0.0252  -5.0422   0.0000   0.0000   0.0000  -0.1664
  -8.250  -0.3074   0.01485   0.00899  -0.1318  0.8007  0.0257  -4.8394   0.0000   0.0000   0.0000  -0.2017
  -8.000  -0.2801   0.01441   0.00842  -0.1320  0.7974  0.0263  -4.6287   0.0000   0.0000   0.0000  -0.2453
  -7.750  -0.2525   0.01399   0.00806  -0.1322  0.7944  0.0270  -4.4256   0.0000   0.0000   0.0000  -0.2988
  -7.500  -0.2246   0.01365   0.00758  -0.1323  0.7918  0.0278  -4.2283   0.0000   0.0000   0.0000  -0.3663
  -7.250  -0.1974   0.01313   0.00709  -0.1325  0.7887  0.0285  -4.0394   0.0000   0.0000   0.0000  -0.4509
  -7.000  -0.1694   0.01279   0.00672  -0.1327  0.7855  0.0294  -3.8497   0.0000   0.0000   0.0000  -0.5662
  -6.750  -0.1412   0.01248   0.00632  -0.1328  0.7828  0.0304  -3.6690   0.0000   0.0000   0.0000  -0.7286
  -6.500  -0.1135   0.01205   0.00588  -0.1330  0.7801  0.0313  -3.4883   0.0000   0.0000   0.0000  -0.9669
  -6.250  -0.0852   0.01176   0.00559  -0.1332  0.7768  0.0325  -3.3142   0.0000   0.0000   0.0000  -1.3710
  -6.000  -0.0569   0.01143   0.00521  -0.1334  0.7738  0.0338  -3.1486   0.0000   0.0000   0.0000  -2.1747
  -5.750  -0.0285   0.01117   0.00493  -0.1336  0.7712  0.0352  -2.9797   0.0000   0.0000   0.0000  -4.5936
  -5.500   0.0000   0.01090   0.00462  -0.1339  0.7682  0.0367  -2.8185   0.0000   0.0000   0.0000  34455.6803
  -5.250   0.0285   0.01064   0.00437  -0.1341  0.7650  0.0384  -2.6546   0.0000   0.0000   0.0000   5.0860
  -5.000   0.0572   0.01039   0.00409  -0.1343  0.7621  0.0404  -2.5027   0.0000   0.0000   0.0000   2.6632
  -4.750   0.0860   0.01021   0.00388  -0.1345  0.7595  0.0427  -2.3523   0.0000   0.0000   0.0000   1.8544
  -4.500   0.1147   0.00996   0.00365  -0.1348  0.7561  0.0451  -2.2060   0.0000   0.0000   0.0000   1.4538
  -4.250   0.1435   0.00976   0.00343  -0.1350  0.7529  0.0481  -2.0616   0.0000   0.0000   0.0000   1.2120
  -4.000   0.1725   0.00960   0.00324  -0.1352  0.7502  0.0516  -1.9191   0.0000   0.0000   0.0000   1.0506
  -3.750   0.2013   0.00941   0.00307  -0.1355  0.7469  0.0561  -1.7846   0.0000   0.0000   0.0000   0.9360
  -3.500   0.2302   0.00921   0.00290  -0.1357  0.7434  0.0622  -1.6546   0.0000   0.0000   0.0000   0.8502
  -3.250   0.2592   0.00903   0.00274  -0.1360  0.7404  0.0713  -1.5267   0.0000   0.0000   0.0000   0.7832
  -3.000   0.2881   0.00885   0.00260  -0.1363  0.7372  0.0858  -1.4015   0.0000   0.0000   0.0000   0.7300
  -2.750   0.3169   0.00864   0.00249  -0.1365  0.7335  0.1080  -1.2802   0.0000   0.0000   0.0000   0.6865
  -2.500   0.3458   0.00847   0.00239  -0.1368  0.7302  0.1352  -1.1647   0.0000   0.0000   0.0000   0.6502
  -2.250   0.3746   0.00831   0.00232  -0.1371  0.7267  0.1644  -1.0514   0.0000   0.0000   0.0000   0.6195
  -2.000   0.4035   0.00816   0.00226  -0.1374  0.7228  0.1933  -0.9430   0.0000   0.0000   0.0000   0.5932
  -1.750   0.4325   0.00803   0.00220  -0.1377  0.7194  0.2240  -0.8398   0.0000   0.0000   0.0000   0.5703
  -1.500   0.4613   0.00790   0.00217  -0.1379  0.7155  0.2597  -0.7885   0.0000   0.0000   0.0000   0.5504
  -1.000   0.5190   0.00761   0.00210  -0.1385  0.7080  0.3494  -0.8255   0.0000   0.0000   0.0000   0.5171
  -0.750   0.5476   0.00742   0.00210  -0.1388  0.7035  0.4098  -0.8448   0.0000   0.0000   0.0000   0.5032
  -0.500   0.5762   0.00724   0.00210  -0.1391  0.6996  0.4805  -0.8650   0.0000   0.0000   0.0000   0.4906
  -0.250   0.6047   0.00708   0.00213  -0.1393  0.6953  0.5534  -0.8853   0.0000   0.0000   0.0000   0.4792
   0.000   0.6331   0.00695   0.00216  -0.1394  0.6908  0.6135  -0.9063   0.0000   0.0000   0.0000   0.4687
   0.250   0.6613   0.00687   0.00220  -0.1395  0.6866  0.6723  -0.9284   0.0000   0.0000   0.0000   0.4590
   0.500   0.6894   0.00681   0.00224  -0.1395  0.6816  0.7143  -0.9509   0.0000   0.0000   0.0000   0.4501
   0.750   0.7174   0.00678   0.00227  -0.1395  0.6773  0.7493  -0.9738   0.0000   0.0000   0.0000   0.4417
   1.000   0.7452   0.00674   0.00232  -0.1394  0.6719  0.7825  -0.9978   0.0000   0.0000   0.0000   0.4341
   1.250   0.7724   0.00672   0.00236  -0.1392  0.6672  0.8148  -1.0224   0.0000   0.0000   0.0000   0.4268
   1.500   0.7991   0.00667   0.00241  -0.1388  0.6615  0.8496  -1.0470   0.0000   0.0000   0.0000   0.4201
   1.750   0.8241   0.00664   0.00245  -0.1380  0.6564  0.8892  -1.0717   0.0000   0.0000   0.0000   0.4135
   2.000   0.8477   0.00655   0.00246  -0.1369  0.6505  0.9476  -1.0969   0.0000   0.0000   0.0000   0.4071
   2.250   0.8816   0.00656   0.00246  -0.1382  0.6445  1.0000  -1.1291   0.0000   0.0000   0.0000   0.4021
   2.500   0.9099   0.00665   0.00250  -0.1384  0.6383  1.0000  -1.1583   0.0000   0.0000   0.0000   0.3971
   2.750   0.9384   0.00673   0.00256  -0.1385  0.6315  1.0000  -1.1890   0.0000   0.0000   0.0000   0.3924
   3.000   0.9665   0.00682   0.00262  -0.1387  0.6248  1.0000  -1.2208   0.0000   0.0000   0.0000   0.3879
   3.500   1.0221   0.00702   0.00277  -0.1388  0.6096  1.0000  -1.2871   0.0000   0.0000   0.0000   0.3796
   3.750   1.0496   0.00713   0.00286  -0.1388  0.6011  1.0000  -1.3237   0.0000   0.0000   0.0000   0.3757
   4.000   1.0768   0.00726   0.00295  -0.1388  0.5920  1.0000  -1.3605   0.0000   0.0000   0.0000   0.3720
   4.250   1.1038   0.00740   0.00306  -0.1387  0.5822  1.0000  -1.4007   0.0000   0.0000   0.0000   0.3684
   4.500   1.1304   0.00755   0.00318  -0.1386  0.5720  1.0000  -1.4420   0.0000   0.0000   0.0000   0.3650
   4.750   1.1567   0.00772   0.00331  -0.1384  0.5607  1.0000  -1.4841   0.0000   0.0000   0.0000   0.3617
   5.000   1.1824   0.00791   0.00346  -0.1381  0.5486  1.0000  -1.5300   0.0000   0.0000   0.0000   0.3586
   5.250   1.2079   0.00811   0.00362  -0.1378  0.5360  1.0000  -1.5770   0.0000   0.0000   0.0000   0.3555
   5.500   1.2329   0.00834   0.00380  -0.1374  0.5217  1.0000  -1.6273   0.0000   0.0000   0.0000   0.3525
   5.750   1.2569   0.00861   0.00401  -0.1368  0.5065  1.0000  -1.6813   0.0000   0.0000   0.0000   0.3496
   6.000   1.2807   0.00888   0.00423  -0.1362  0.4902  1.0000  -1.7443   0.0000   0.0000   0.0000   0.3467
   6.250   1.3034   0.00921   0.00449  -0.1354  0.4730  1.0000  -1.8145   0.0000   0.0000   0.0000   0.3439
   6.500   1.3251   0.00958   0.00478  -0.1345  0.4547  1.0000  -1.8884   0.0000   0.0000   0.0000   0.3412
   6.750   1.3458   0.00998   0.00509  -0.1334  0.4356  1.0000  -1.9643   0.0000   0.0000   0.0000   0.3384
   7.250   1.3851   0.01084   0.00580  -0.1309  0.3976  1.0000  -2.1252   0.0000   0.0000   0.0000   0.3331
   7.500   1.4029   0.01131   0.00619  -0.1294  0.3789  1.0000  -2.2065   0.0000   0.0000   0.0000   0.3304
   7.750   1.4186   0.01180   0.00660  -0.1274  0.3615  1.0000  -2.2848   0.0000   0.0000   0.0000   0.3276
   8.000   1.4340   0.01234   0.00707  -0.1255  0.3452  1.0000  -2.3655   0.0000   0.0000   0.0000   0.3249
   8.250   1.4498   0.01289   0.00757  -0.1238  0.3287  1.0000  -2.4744   0.0000   0.0000   0.0000   0.3224
   8.500   1.4645   0.01352   0.00813  -0.1219  0.3125  1.0000  -2.5820   0.0000   0.0000   0.0000   0.3199
   9.000   1.4916   0.01498   0.00946  -0.1182  0.2786  1.0000  -2.7956   0.0000   0.0000   0.0000   0.3150
   9.250   1.5043   0.01581   0.01022  -0.1163  0.2616  1.0000  -2.9032   0.0000   0.0000   0.0000   0.3127
   9.500   1.5163   0.01671   0.01105  -0.1145  0.2453  1.0000  -3.0126   0.0000   0.0000   0.0000   0.3104
   9.750   1.5279   0.01766   0.01193  -0.1126  0.2291  1.0000  -3.1222   0.0000   0.0000   0.0000   0.3082
  10.000   1.5392   0.01865   0.01286  -0.1108  0.2132  1.0000  -3.2322   0.0000   0.0000   0.0000   0.3060
  10.250   1.5497   0.01973   0.01387  -0.1090  0.1985  1.0000  -3.3407   0.0000   0.0000   0.0000   0.3039
  10.500   1.5601   0.02082   0.01491  -0.1072  0.1840  1.0000  -3.4503   0.0000   0.0000   0.0000   0.3018
  10.750   1.5694   0.02202   0.01604  -0.1053  0.1699  1.0000  -3.5575   0.0000   0.0000   0.0000   0.2998
  11.000   1.5779   0.02328   0.01724  -0.1035  0.1562  1.0000  -3.6634   0.0000   0.0000   0.0000   0.2978
  11.250   1.5863   0.02457   0.01849  -0.1017  0.1434  1.0000  -3.7700   0.0000   0.0000   0.0000   0.2958
  11.500   1.5940   0.02594   0.01980  -0.0998  0.1312  1.0000  -3.8750   0.0000   0.0000   0.0000   0.2939
  11.750   1.6015   0.02734   0.02116  -0.0981  0.1206  1.0000  -3.9803   0.0000   0.0000   0.0000   0.2920
  12.000   1.6092   0.02875   0.02254  -0.0964  0.1106  1.0000  -4.0868   0.0000   0.0000   0.0000   0.2902
  12.250   1.6161   0.03023   0.02401  -0.0947  0.1014  1.0000  -4.1916   0.0000   0.0000   0.0000   0.2884
  12.500   1.6225   0.03178   0.02553  -0.0930  0.0932  1.0000  -4.2954   0.0000   0.0000   0.0000   0.2866
  12.750   1.6288   0.03338   0.02712  -0.0914  0.0857  1.0000  -4.4025   0.0000   0.0000   0.0000   0.2849
  13.000   1.6349   0.03504   0.02877  -0.0898  0.0791  1.0000  -4.5106   0.0000   0.0000   0.0000   0.2832
  13.250   1.6410   0.03673   0.03046  -0.0884  0.0733  1.0000  -4.6192   0.0000   0.0000   0.0000   0.2816
  13.500   1.6472   0.03846   0.03221  -0.0870  0.0681  1.0000  -4.7285   0.0000   0.0000   0.0000   0.2801
  13.750   1.6530   0.04026   0.03402  -0.0857  0.0635  1.0000  -4.8372   0.0000   0.0000   0.0000   0.2785
  14.000   1.6583   0.04214   0.03591  -0.0844  0.0594  1.0000  -4.9445   0.0000   0.0000   0.0000   0.2771
  14.250   1.6626   0.04415   0.03794  -0.0832  0.0558  1.0000  -5.0487   0.0000   0.0000   0.0000   0.2756
  14.500   1.6684   0.04605   0.03988  -0.0821  0.0525  1.0000  -5.1590   0.0000   0.0000   0.0000   0.2743
  14.750   1.6731   0.04811   0.04197  -0.0810  0.0496  1.0000  -5.2650   0.0000   0.0000   0.0000   0.2729
  15.000   1.6763   0.05034   0.04424  -0.0799  0.0469  1.0000  -5.3662   0.0000   0.0000   0.0000   0.2716
  15.250   1.6811   0.05245   0.04640  -0.0790  0.0444  1.0000  -5.4733   0.0000   0.0000   0.0000   0.2704
  15.500   1.6836   0.05484   0.04882  -0.0781  0.0421  1.0000  -5.5855   0.0000   0.0000   0.0000   0.2692
  15.750   1.6866   0.05722   0.05126  -0.0773  0.0398  1.0000  -5.7110   0.0000   0.0000   0.0000   0.2681
  16.000   1.6886   0.05974   0.05382  -0.0765  0.0377  1.0000  -5.8325   0.0000   0.0000   0.0000   0.2670
  16.250   1.6886   0.06252   0.05664  -0.0758  0.0356  1.0000  -5.9447   0.0000   0.0000   0.0000   0.2659
  16.500   1.6903   0.06515   0.05934  -0.0752  0.0336  1.0000  -6.0652   0.0000   0.0000   0.0000   0.2649
  16.750   1.6890   0.06818   0.06242  -0.0746  0.0318  1.0000  -6.1705   0.0000   0.0000   0.0000   0.2640
  17.000   1.6886   0.07113   0.06543  -0.0742  0.0300  1.0000  -6.2809   0.0000   0.0000   0.0000   0.2632
  17.250   1.6864   0.07437   0.06873  -0.0738  0.0286  1.0000  -6.3808   0.0000   0.0000   0.0000   0.2624
  17.500   1.6842   0.07765   0.07207  -0.0735  0.0272  1.0000  -6.4811   0.0000   0.0000   0.0000   0.2617
  17.750   1.6795   0.08128   0.07577  -0.0734  0.0262  1.0000  -6.5676   0.0000   0.0000   0.0000   0.2611
  18.000   1.6772   0.08467   0.07925  -0.0733  0.0251  1.0000  -6.6658   0.0000   0.0000   0.0000   0.2605
  18.250   1.6718   0.08851   0.08315  -0.0734  0.0243  1.0000  -6.7474   0.0000   0.0000   0.0000   0.2600
  18.500   1.6665   0.09238   0.08710  -0.0737  0.0236  1.0000  -6.8276   0.0000   0.0000   0.0000   0.2597
  18.750   1.6631   0.09604   0.09086  -0.0740  0.0228  1.0000  -6.9179   0.0000   0.0000   0.0000   0.2593
  19.000   1.6576   0.10004   0.09493  -0.0745  0.0222  1.0000  -6.9994   0.0000   0.0000   0.0000   0.2591
  19.250   1.6486   0.10458   0.09954  -0.0753  0.0217  1.0000  -7.0578   0.0000   0.0000   0.0000   0.2592
  19.500   1.6453   0.10836   0.10341  -0.0761  0.0211  1.0000  -7.1482   0.0000   0.0000   0.0000   0.2591
  19.750   1.6411   0.11228   0.10742  -0.0770  0.0206  1.0000  -7.2329   0.0000   0.0000   0.0000   0.2591
  20.000   1.6355   0.11646   0.11168  -0.0781  0.0202  1.0000  -7.3068   0.0000   0.0000   0.0000   0.2593


