xflr5 v6.61

 Calculated polar for: QX0226

 1 1 Reynolds number fixed          Mach number fixed         

 xtrf =   1.000 (top)        1.000 (bottom)
 Mach =   0.000     Re =     0.480 e 6     Ncrit =   9.000

  alpha     CL        CD       CDp       Cm    Top Xtr Bot Xtr   Cpmin    Chinge    XCp    
 ------- -------- --------- --------- -------- ------- ------- -------- --------- ---------
 -10.000  -0.4309   0.03354   0.02960  -0.1300  0.8517  0.0264  -5.4115   0.0000   0.0000   0.0000  -0.0723
  -9.750  -0.4236   0.02960   0.02518  -0.1318  0.8474  0.0269  -5.4132   0.0000   0.0000   0.0000  -0.0816
  -9.500  -0.4119   0.02602   0.02097  -0.1328  0.8437  0.0275  -5.3995   0.0000   0.0000   0.0000  -0.0930
  -9.250  -0.3933   0.02370   0.01821  -0.1333  0.8397  0.0280  -5.3083   0.0000   0.0000   0.0000  -0.1097
  -9.000  -0.3682   0.02297   0.01750  -0.1334  0.8365  0.0284  -5.0898   0.0000   0.0000   0.0000  -0.1337
  -8.750  -0.3431   0.02221   0.01665  -0.1336  0.8336  0.0291  -4.8888   0.0000   0.0000   0.0000  -0.1612
  -8.500  -0.3191   0.02096   0.01516  -0.1338  0.8298  0.0299  -4.7325   0.0000   0.0000   0.0000  -0.1919
  -8.250  -0.2947   0.01967   0.01353  -0.1339  0.8265  0.0306  -4.5859   0.0000   0.0000   0.0000  -0.2280
  -8.000  -0.2686   0.01891   0.01274  -0.1340  0.8239  0.0312  -4.3882   0.0000   0.0000   0.0000  -0.2737
  -7.750  -0.2421   0.01829   0.01209  -0.1341  0.8203  0.0320  -4.2014   0.0000   0.0000   0.0000  -0.3304
  -7.500  -0.2156   0.01756   0.01115  -0.1342  0.8170  0.0330  -4.0372   0.0000   0.0000   0.0000  -0.4011
  -7.250  -0.1890   0.01680   0.01032  -0.1343  0.8142  0.0339  -3.8622   0.0000   0.0000   0.0000  -0.4919
  -7.000  -0.1618   0.01627   0.00976  -0.1344  0.8112  0.0348  -3.6860   0.0000   0.0000   0.0000  -0.6153
  -6.750  -0.1346   0.01572   0.00911  -0.1345  0.8077  0.0359  -3.5270   0.0000   0.0000   0.0000  -0.7893
  -6.500  -0.1074   0.01514   0.00848  -0.1346  0.8047  0.0371  -3.3617   0.0000   0.0000   0.0000  -1.0509
  -6.250  -0.0796   0.01473   0.00802  -0.1347  0.8022  0.0385  -3.1918   0.0000   0.0000   0.0000  -1.5046
  -6.000  -0.0521   0.01425   0.00748  -0.1348  0.7986  0.0399  -3.0456   0.0000   0.0000   0.0000  -2.4247
  -5.750  -0.0246   0.01382   0.00708  -0.1349  0.7954  0.0414  -2.8880   0.0000   0.0000   0.0000  -5.4145
  -5.500   0.0036   0.01347   0.00662  -0.1350  0.7927  0.0434  -2.7388   0.0000   0.0000   0.0000  38.4670
  -5.250   0.0314   0.01308   0.00627  -0.1352  0.7896  0.0454  -2.5846   0.0000   0.0000   0.0000   4.6891
  -5.000   0.0593   0.01272   0.00589  -0.1353  0.7861  0.0477  -2.4420   0.0000   0.0000   0.0000   2.5978
  -4.750   0.0876   0.01243   0.00558  -0.1355  0.7832  0.0504  -2.2998   0.0000   0.0000   0.0000   1.8378
  -4.500   0.1161   0.01212   0.00524  -0.1357  0.7807  0.0534  -2.1607   0.0000   0.0000   0.0000   1.4481
  -4.250   0.1441   0.01183   0.00498  -0.1359  0.7769  0.0570  -2.0257   0.0000   0.0000   0.0000   1.2150
  -4.000   0.1726   0.01158   0.00472  -0.1360  0.7737  0.0614  -1.8903   0.0000   0.0000   0.0000   1.0554
  -3.750   0.2014   0.01133   0.00445  -0.1363  0.7710  0.0670  -1.7607   0.0000   0.0000   0.0000   0.9402
  -3.500   0.2297   0.01108   0.00425  -0.1365  0.7675  0.0746  -1.6367   0.0000   0.0000   0.0000   0.8551
  -3.250   0.2582   0.01084   0.00405  -0.1367  0.7640  0.0863  -1.5147   0.0000   0.0000   0.0000   0.7882
  -3.000   0.2871   0.01057   0.00384  -0.1370  0.7611  0.1059  -1.3930   0.0000   0.0000   0.0000   0.7343
  -2.750   0.3155   0.01033   0.00372  -0.1372  0.7577  0.1359  -1.2760   0.0000   0.0000   0.0000   0.6908
  -2.500   0.3440   0.01012   0.00363  -0.1375  0.7539  0.1702  -1.1630   0.0000   0.0000   0.0000   0.6544
  -2.250   0.3730   0.00994   0.00351  -0.1378  0.7508  0.2044  -1.0504   0.0000   0.0000   0.0000   0.6232
  -2.000   0.4015   0.00977   0.00346  -0.1380  0.7472  0.2413  -0.9441   0.0000   0.0000   0.0000   0.5967
  -1.750   0.4300   0.00960   0.00340  -0.1382  0.7432  0.2812  -0.8423   0.0000   0.0000   0.0000   0.5737
  -1.500   0.4590   0.00941   0.00333  -0.1385  0.7400  0.3312  -0.7846   0.0000   0.0000   0.0000   0.5534
  -1.250   0.4871   0.00922   0.00332  -0.1388  0.7360  0.3902  -0.8025   0.0000   0.0000   0.0000   0.5358
  -1.000   0.5154   0.00899   0.00330  -0.1390  0.7319  0.4624  -0.8209   0.0000   0.0000   0.0000   0.5200
  -0.750   0.5441   0.00878   0.00328  -0.1392  0.7288  0.5433  -0.8407   0.0000   0.0000   0.0000   0.5057
  -0.500   0.5713   0.00861   0.00335  -0.1391  0.7240  0.6130  -0.8600   0.0000   0.0000   0.0000   0.4929
  -0.250   0.5992   0.00849   0.00337  -0.1390  0.7202  0.6773  -0.8802   0.0000   0.0000   0.0000   0.4810
   0.000   0.6266   0.00842   0.00341  -0.1388  0.7160  0.7254  -0.9007   0.0000   0.0000   0.0000   0.4701
   0.250   0.6537   0.00835   0.00343  -0.1385  0.7115  0.7654  -0.9221   0.0000   0.0000   0.0000   0.4600
   0.500   0.6808   0.00829   0.00343  -0.1381  0.7077  0.8029  -0.9442   0.0000   0.0000   0.0000   0.4507
   0.750   0.7062   0.00823   0.00347  -0.1374  0.7025  0.8401  -0.9656   0.0000   0.0000   0.0000   0.4421
   1.000   0.7311   0.00815   0.00345  -0.1365  0.6985  0.8797  -0.9880   0.0000   0.0000   0.0000   0.4338
   1.250   0.7539   0.00805   0.00346  -0.1351  0.6931  0.9314  -1.0099   0.0000   0.0000   0.0000   0.4259
   1.500   0.7909   0.00799   0.00336  -0.1369  0.6886  1.0000  -1.0406   0.0000   0.0000   0.0000   0.4195
   1.750   0.8193   0.00804   0.00340  -0.1371  0.6829  1.0000  -1.0670   0.0000   0.0000   0.0000   0.4135
   2.000   0.8484   0.00810   0.00338  -0.1374  0.6781  1.0000  -1.0955   0.0000   0.0000   0.0000   0.4077
   2.250   0.8764   0.00816   0.00344  -0.1375  0.6719  1.0000  -1.1238   0.0000   0.0000   0.0000   0.4024
   2.500   0.9050   0.00823   0.00345  -0.1377  0.6666  1.0000  -1.1531   0.0000   0.0000   0.0000   0.3973
   2.750   0.9329   0.00830   0.00350  -0.1378  0.6602  1.0000  -1.1833   0.0000   0.0000   0.0000   0.3925
   3.000   0.9607   0.00837   0.00356  -0.1379  0.6538  1.0000  -1.2149   0.0000   0.0000   0.0000   0.3880
   3.500   1.0161   0.00854   0.00368  -0.1379  0.6402  1.0000  -1.2807   0.0000   0.0000   0.0000   0.3795
   3.750   1.0434   0.00864   0.00376  -0.1379  0.6328  1.0000  -1.3170   0.0000   0.0000   0.0000   0.3756
   4.000   1.0706   0.00874   0.00384  -0.1378  0.6252  1.0000  -1.3537   0.0000   0.0000   0.0000   0.3719
   4.250   1.0975   0.00886   0.00392  -0.1377  0.6171  1.0000  -1.3935   0.0000   0.0000   0.0000   0.3683
   4.500   1.1240   0.00898   0.00403  -0.1375  0.6080  1.0000  -1.4345   0.0000   0.0000   0.0000   0.3648
   4.750   1.1501   0.00912   0.00415  -0.1372  0.5982  1.0000  -1.4764   0.0000   0.0000   0.0000   0.3615
   5.000   1.1760   0.00927   0.00428  -0.1369  0.5881  1.0000  -1.5218   0.0000   0.0000   0.0000   0.3583
   5.250   1.2014   0.00944   0.00443  -0.1366  0.5773  1.0000  -1.5687   0.0000   0.0000   0.0000   0.3551
   5.500   1.2264   0.00962   0.00460  -0.1361  0.5654  1.0000  -1.6182   0.0000   0.0000   0.0000   0.3521
   5.750   1.2510   0.00982   0.00478  -0.1356  0.5529  1.0000  -1.6725   0.0000   0.0000   0.0000   0.3492
   6.000   1.2747   0.01006   0.00499  -0.1350  0.5395  1.0000  -1.7345   0.0000   0.0000   0.0000   0.3463
   6.250   1.2977   0.01033   0.00522  -0.1342  0.5250  1.0000  -1.8032   0.0000   0.0000   0.0000   0.3435
   6.500   1.3199   0.01063   0.00547  -0.1333  0.5095  1.0000  -1.8777   0.0000   0.0000   0.0000   0.3407
   6.750   1.3411   0.01096   0.00576  -0.1323  0.4929  1.0000  -1.9534   0.0000   0.0000   0.0000   0.3380
   7.000   1.3609   0.01136   0.00609  -0.1310  0.4755  1.0000  -2.0313   0.0000   0.0000   0.0000   0.3352
   7.250   1.3792   0.01180   0.00646  -0.1295  0.4570  1.0000  -2.1099   0.0000   0.0000   0.0000   0.3325
   7.500   1.3964   0.01227   0.00686  -0.1278  0.4383  1.0000  -2.1888   0.0000   0.0000   0.0000   0.3297
   7.750   1.4111   0.01277   0.00730  -0.1257  0.4203  1.0000  -2.2650   0.0000   0.0000   0.0000   0.3269
   8.000   1.4247   0.01334   0.00780  -0.1235  0.4027  1.0000  -2.3400   0.0000   0.0000   0.0000   0.3241
   8.250   1.4376   0.01398   0.00838  -0.1212  0.3853  1.0000  -2.4348   0.0000   0.0000   0.0000   0.3213
   8.500   1.4510   0.01465   0.00900  -0.1192  0.3682  1.0000  -2.5384   0.0000   0.0000   0.0000   0.3188
   8.750   1.4639   0.01538   0.00968  -0.1172  0.3519  1.0000  -2.6419   0.0000   0.0000   0.0000   0.3163
   9.000   1.4757   0.01621   0.01045  -0.1152  0.3358  1.0000  -2.7438   0.0000   0.0000   0.0000   0.3138
   9.250   1.4882   0.01704   0.01124  -0.1133  0.3195  1.0000  -2.8485   0.0000   0.0000   0.0000   0.3115
   9.500   1.4993   0.01799   0.01213  -0.1114  0.3037  1.0000  -2.9512   0.0000   0.0000   0.0000   0.3092
   9.750   1.5099   0.01900   0.01309  -0.1094  0.2874  1.0000  -3.0567   0.0000   0.0000   0.0000   0.3070
  10.000   1.5202   0.02006   0.01410  -0.1076  0.2710  1.0000  -3.1625   0.0000   0.0000   0.0000   0.3048
  10.250   1.5292   0.02124   0.01522  -0.1056  0.2549  1.0000  -3.2655   0.0000   0.0000   0.0000   0.3026
  10.500   1.5377   0.02248   0.01640  -0.1037  0.2384  1.0000  -3.3681   0.0000   0.0000   0.0000   0.3005
  10.750   1.5461   0.02376   0.01763  -0.1018  0.2224  1.0000  -3.4710   0.0000   0.0000   0.0000   0.2985
  11.000   1.5533   0.02513   0.01895  -0.0999  0.2071  1.0000  -3.5717   0.0000   0.0000   0.0000   0.2965
  11.250   1.5602   0.02657   0.02032  -0.0980  0.1921  1.0000  -3.6718   0.0000   0.0000   0.0000   0.2945
  11.500   1.5667   0.02805   0.02176  -0.0962  0.1776  1.0000  -3.7715   0.0000   0.0000   0.0000   0.2926
  11.750   1.5718   0.02967   0.02332  -0.0943  0.1639  1.0000  -3.8674   0.0000   0.0000   0.0000   0.2907
  12.000   1.5778   0.03125   0.02487  -0.0925  0.1510  1.0000  -3.9665   0.0000   0.0000   0.0000   0.2889
  12.250   1.5826   0.03294   0.02652  -0.0908  0.1391  1.0000  -4.0623   0.0000   0.0000   0.0000   0.2871
  12.500   1.5874   0.03468   0.02824  -0.0891  0.1282  1.0000  -4.1586   0.0000   0.0000   0.0000   0.2854
  12.750   1.5922   0.03647   0.03001  -0.0875  0.1178  1.0000  -4.2553   0.0000   0.0000   0.0000   0.2837
  13.000   1.5963   0.03837   0.03189  -0.0860  0.1082  1.0000  -4.3530   0.0000   0.0000   0.0000   0.2821
  13.250   1.5998   0.04036   0.03386  -0.0845  0.0996  1.0000  -4.4495   0.0000   0.0000   0.0000   0.2805
  13.500   1.6031   0.04242   0.03592  -0.0831  0.0920  1.0000  -4.5458   0.0000   0.0000   0.0000   0.2790
  13.750   1.6065   0.04453   0.03803  -0.0817  0.0852  1.0000  -4.6423   0.0000   0.0000   0.0000   0.2775
  14.000   1.6098   0.04668   0.04020  -0.0805  0.0793  1.0000  -4.7387   0.0000   0.0000   0.0000   0.2761
  14.250   1.6130   0.04890   0.04245  -0.0794  0.0741  1.0000  -4.8347   0.0000   0.0000   0.0000   0.2748
  14.500   1.6156   0.05123   0.04481  -0.0783  0.0696  1.0000  -4.9285   0.0000   0.0000   0.0000   0.2735
  14.750   1.6168   0.05374   0.04734  -0.0773  0.0657  1.0000  -5.0172   0.0000   0.0000   0.0000   0.2723
  15.000   1.6189   0.05620   0.04985  -0.0764  0.0619  1.0000  -5.1095   0.0000   0.0000   0.0000   0.2711
  15.250   1.6207   0.05874   0.05244  -0.0755  0.0586  1.0000  -5.2003   0.0000   0.0000   0.0000   0.2700
  15.500   1.6196   0.06166   0.05538  -0.0747  0.0557  1.0000  -5.2801   0.0000   0.0000   0.0000   0.2689
  15.750   1.6217   0.06425   0.05806  -0.0741  0.0527  1.0000  -5.3794   0.0000   0.0000   0.0000   0.2679
  16.000   1.6205   0.06728   0.06113  -0.0735  0.0502  1.0000  -5.4757   0.0000   0.0000   0.0000   0.2670
  16.250   1.6201   0.07026   0.06418  -0.0731  0.0477  1.0000  -5.5767   0.0000   0.0000   0.0000   0.2661
  16.500   1.6184   0.07346   0.06745  -0.0727  0.0455  1.0000  -5.6732   0.0000   0.0000   0.0000   0.2653
  16.750   1.6160   0.07678   0.07083  -0.0724  0.0433  1.0000  -5.7668   0.0000   0.0000   0.0000   0.2646
  17.000   1.6133   0.08019   0.07431  -0.0722  0.0413  1.0000  -5.8574   0.0000   0.0000   0.0000   0.2640
  17.250   1.6093   0.08383   0.07801  -0.0722  0.0395  1.0000  -5.9412   0.0000   0.0000   0.0000   0.2635
  17.500   1.6051   0.08754   0.08180  -0.0722  0.0377  1.0000  -6.0224   0.0000   0.0000   0.0000   0.2630
  17.750   1.6007   0.09133   0.08566  -0.0725  0.0361  1.0000  -6.1019   0.0000   0.0000   0.0000   0.2626
  18.000   1.5944   0.09541   0.08982  -0.0728  0.0348  1.0000  -6.1696   0.0000   0.0000   0.0000   0.2624
  18.250   1.5907   0.09921   0.09371  -0.0733  0.0333  1.0000  -6.2499   0.0000   0.0000   0.0000   0.2622
  18.500   1.5829   0.10362   0.09816  -0.0740  0.0324  1.0000  -6.3066   0.0000   0.0000   0.0000   0.2623
  18.750   1.5789   0.10753   0.10218  -0.0748  0.0312  1.0000  -6.3805   0.0000   0.0000   0.0000   0.2622
  19.000   1.5746   0.11152   0.10626  -0.0757  0.0303  1.0000  -6.4528   0.0000   0.0000   0.0000   0.2623
  19.250   1.5683   0.11581   0.11060  -0.0768  0.0295  1.0000  -6.5129   0.0000   0.0000   0.0000   0.2625
  19.500   1.5640   0.11986   0.11473  -0.0780  0.0287  1.0000  -6.5797   0.0000   0.0000   0.0000   0.2628
  19.750   1.5612   0.12370   0.11866  -0.0792  0.0279  1.0000  -6.6559   0.0000   0.0000   0.0000   0.2630
  20.000   1.5580   0.12763   0.12266  -0.0806  0.0272  1.0000  -6.7323   0.0000   0.0000   0.0000   0.2633


