xflr5 v6.61

 Calculated polar for: QX0026  thickness=14.08

 1 1 Reynolds number fixed          Mach number fixed         

 xtrf =   1.000 (top)        1.000 (bottom)
 Mach =   0.000     Re =     0.560 e 6     Ncrit =   9.000

  alpha     CL        CD       CDp       Cm    Top Xtr Bot Xtr   Cpmin    Chinge    XCp    
 ------- -------- --------- --------- -------- ------- ------- -------- --------- ---------
 -10.000  -0.4674   0.02536   0.02053  -0.1316  0.8409  0.0247  -5.9631   0.0000   0.0000   0.0000  -0.0514
  -9.750  -0.4494   0.02315   0.01778  -0.1321  0.8372  0.0254  -5.8586   0.0000   0.0000   0.0000  -0.0639
  -9.500  -0.4254   0.02217   0.01678  -0.1323  0.8344  0.0258  -5.6436   0.0000   0.0000   0.0000  -0.0811
  -9.250  -0.4002   0.02144   0.01603  -0.1325  0.8306  0.0262  -5.4281   0.0000   0.0000   0.0000  -0.1016
  -9.000  -0.3754   0.02055   0.01501  -0.1326  0.8273  0.0268  -5.2331   0.0000   0.0000   0.0000  -0.1245
  -8.750  -0.3507   0.01952   0.01369  -0.1328  0.8244  0.0275  -5.0613   0.0000   0.0000   0.0000  -0.1504
  -8.500  -0.3254   0.01856   0.01261  -0.1329  0.8211  0.0281  -4.8726   0.0000   0.0000   0.0000  -0.1810
  -8.250  -0.2990   0.01795   0.01197  -0.1331  0.8177  0.0287  -4.6621   0.0000   0.0000   0.0000  -0.2185
  -8.000  -0.2725   0.01731   0.01124  -0.1332  0.8147  0.0294  -4.4714   0.0000   0.0000   0.0000  -0.2635
  -7.750  -0.2457   0.01666   0.01039  -0.1333  0.8120  0.0303  -4.2978   0.0000   0.0000   0.0000  -0.3188
  -7.500  -0.2191   0.01598   0.00971  -0.1334  0.8085  0.0310  -4.1100   0.0000   0.0000   0.0000  -0.3871
  -7.250  -0.1918   0.01552   0.00921  -0.1336  0.8054  0.0319  -3.9175   0.0000   0.0000   0.0000  -0.4772
  -7.000  -0.1643   0.01502   0.00857  -0.1337  0.8028  0.0329  -3.7502   0.0000   0.0000   0.0000  -0.5981
  -6.750  -0.1372   0.01444   0.00798  -0.1338  0.7996  0.0339  -3.5820   0.0000   0.0000   0.0000  -0.7645
  -6.500  -0.1095   0.01405   0.00757  -0.1339  0.7963  0.0350  -3.4045   0.0000   0.0000   0.0000  -1.0197
  -6.250  -0.0814   0.01369   0.00710  -0.1341  0.7934  0.0364  -3.2403   0.0000   0.0000   0.0000  -1.4577
  -6.000  -0.0539   0.01323   0.00666  -0.1342  0.7908  0.0377  -3.0780   0.0000   0.0000   0.0000  -2.3279
  -5.750  -0.0259   0.01290   0.00628  -0.1344  0.7873  0.0393  -2.9228   0.0000   0.0000   0.0000  -5.1175
  -5.500   0.0020   0.01249   0.00588  -0.1345  0.7842  0.0409  -2.7661   0.0000   0.0000   0.0000  69.1439
  -5.250   0.0306   0.01224   0.00556  -0.1347  0.7816  0.0430  -2.6104   0.0000   0.0000   0.0000   4.7822
  -5.000   0.0585   0.01188   0.00523  -0.1349  0.7784  0.0451  -2.4616   0.0000   0.0000   0.0000   2.6192
  -4.750   0.0869   0.01160   0.00492  -0.1351  0.7750  0.0476  -2.3207   0.0000   0.0000   0.0000   1.8456
  -4.500   0.1155   0.01135   0.00466  -0.1353  0.7722  0.0505  -2.1771   0.0000   0.0000   0.0000   1.4502
  -4.250   0.1441   0.01109   0.00439  -0.1355  0.7694  0.0538  -2.0372   0.0000   0.0000   0.0000   1.2123
  -4.000   0.1725   0.01084   0.00416  -0.1357  0.7658  0.0579  -1.9002   0.0000   0.0000   0.0000   1.0537
  -3.750   0.2012   0.01061   0.00393  -0.1359  0.7627  0.0631  -1.7692   0.0000   0.0000   0.0000   0.9390
  -3.500   0.2302   0.01041   0.00371  -0.1362  0.7600  0.0703  -1.6420   0.0000   0.0000   0.0000   0.8524
  -3.250   0.2586   0.01017   0.00354  -0.1364  0.7562  0.0811  -1.5187   0.0000   0.0000   0.0000   0.7862
  -3.000   0.2873   0.00994   0.00337  -0.1366  0.7528  0.0991  -1.3962   0.0000   0.0000   0.0000   0.7327
  -2.750   0.3163   0.00971   0.00322  -0.1370  0.7500  0.1266  -1.2768   0.0000   0.0000   0.0000   0.6888
  -2.500   0.3447   0.00951   0.00315  -0.1372  0.7462  0.1586  -1.1632   0.0000   0.0000   0.0000   0.6527
  -2.250   0.3735   0.00934   0.00306  -0.1375  0.7425  0.1910  -1.0508   0.0000   0.0000   0.0000   0.6218
  -2.000   0.4025   0.00918   0.00297  -0.1378  0.7395  0.2244  -0.9430   0.0000   0.0000   0.0000   0.5951
  -1.750   0.4310   0.00902   0.00294  -0.1380  0.7355  0.2621  -0.8411   0.0000   0.0000   0.0000   0.5723
  -1.500   0.4597   0.00885   0.00288  -0.1383  0.7317  0.3049  -0.7861   0.0000   0.0000   0.0000   0.5523
  -1.250   0.4887   0.00868   0.00283  -0.1386  0.7285  0.3582  -0.8045   0.0000   0.0000   0.0000   0.5345
  -1.000   0.5168   0.00847   0.00283  -0.1388  0.7240  0.4230  -0.8227   0.0000   0.0000   0.0000   0.5189
  -0.750   0.5453   0.00826   0.00282  -0.1390  0.7202  0.4987  -0.8422   0.0000   0.0000   0.0000   0.5048
  -0.500   0.5734   0.00809   0.00285  -0.1391  0.7163  0.5729  -0.8621   0.0000   0.0000   0.0000   0.4920
  -0.250   0.6013   0.00794   0.00289  -0.1391  0.7119  0.6388  -0.8822   0.0000   0.0000   0.0000   0.4803
   0.000   0.6295   0.00786   0.00290  -0.1391  0.7083  0.6948  -0.9032   0.0000   0.0000   0.0000   0.4695
   0.250   0.6568   0.00779   0.00296  -0.1389  0.7033  0.7367  -0.9247   0.0000   0.0000   0.0000   0.4597
   0.500   0.6843   0.00773   0.00297  -0.1387  0.6992  0.7745  -0.9469   0.0000   0.0000   0.0000   0.4505
   0.750   0.7110   0.00768   0.00301  -0.1383  0.6944  0.8094  -0.9691   0.0000   0.0000   0.0000   0.4420
   1.000   0.7373   0.00763   0.00302  -0.1378  0.6897  0.8459  -0.9923   0.0000   0.0000   0.0000   0.4340
   1.250   0.7616   0.00756   0.00305  -0.1368  0.6848  0.8859  -1.0151   0.0000   0.0000   0.0000   0.4264
   1.500   0.7854   0.00747   0.00303  -0.1356  0.6798  0.9400  -1.0381   0.0000   0.0000   0.0000   0.4191
   1.750   0.8210   0.00744   0.00300  -0.1373  0.6745  1.0000  -1.0689   0.0000   0.0000   0.0000   0.4133
   2.000   0.8497   0.00750   0.00301  -0.1375  0.6691  1.0000  -1.0971   0.0000   0.0000   0.0000   0.4076
   2.250   0.8781   0.00757   0.00305  -0.1377  0.6632  1.0000  -1.1257   0.0000   0.0000   0.0000   0.4022
   2.750   0.9346   0.00771   0.00314  -0.1380  0.6510  1.0000  -1.1853   0.0000   0.0000   0.0000   0.3924
   3.000   0.9626   0.00780   0.00319  -0.1381  0.6447  1.0000  -1.2170   0.0000   0.0000   0.0000   0.3879
   3.250   0.9905   0.00789   0.00324  -0.1381  0.6381  1.0000  -1.2491   0.0000   0.0000   0.0000   0.3836
   3.500   1.0180   0.00798   0.00332  -0.1381  0.6305  1.0000  -1.2829   0.0000   0.0000   0.0000   0.3795
   3.750   1.0454   0.00808   0.00341  -0.1381  0.6229  1.0000  -1.3193   0.0000   0.0000   0.0000   0.3756
   4.000   1.0726   0.00819   0.00349  -0.1381  0.6150  1.0000  -1.3561   0.0000   0.0000   0.0000   0.3719
   4.250   1.0994   0.00832   0.00359  -0.1379  0.6063  1.0000  -1.3959   0.0000   0.0000   0.0000   0.3683
   4.500   1.1260   0.00845   0.00370  -0.1378  0.5969  1.0000  -1.4369   0.0000   0.0000   0.0000   0.3648
   4.750   1.1522   0.00860   0.00382  -0.1375  0.5870  1.0000  -1.4790   0.0000   0.0000   0.0000   0.3615
   5.000   1.1781   0.00876   0.00396  -0.1373  0.5763  1.0000  -1.5246   0.0000   0.0000   0.0000   0.3583
   5.250   1.2036   0.00893   0.00412  -0.1369  0.5646  1.0000  -1.5716   0.0000   0.0000   0.0000   0.3552
   5.500   1.2286   0.00913   0.00429  -0.1365  0.5523  1.0000  -1.6214   0.0000   0.0000   0.0000   0.3522
   5.750   1.2530   0.00936   0.00448  -0.1360  0.5393  1.0000  -1.6756   0.0000   0.0000   0.0000   0.3493
   6.000   1.2766   0.00961   0.00469  -0.1353  0.5249  1.0000  -1.7378   0.0000   0.0000   0.0000   0.3464
   6.250   1.2996   0.00990   0.00493  -0.1346  0.5095  1.0000  -1.8071   0.0000   0.0000   0.0000   0.3436
   6.500   1.3217   0.01021   0.00520  -0.1337  0.4932  1.0000  -1.8815   0.0000   0.0000   0.0000   0.3408
   6.750   1.3424   0.01059   0.00550  -0.1326  0.4757  1.0000  -1.9567   0.0000   0.0000   0.0000   0.3381
   7.000   1.3620   0.01100   0.00584  -0.1313  0.4573  1.0000  -2.0350   0.0000   0.0000   0.0000   0.3353
   7.250   1.3806   0.01144   0.00621  -0.1299  0.4383  1.0000  -2.1141   0.0000   0.0000   0.0000   0.3326
   7.500   1.3980   0.01192   0.00662  -0.1282  0.4197  1.0000  -2.1937   0.0000   0.0000   0.0000   0.3299
   7.750   1.4125   0.01242   0.00706  -0.1261  0.4019  1.0000  -2.2697   0.0000   0.0000   0.0000   0.3270
   8.000   1.4265   0.01300   0.00756  -0.1239  0.3843  1.0000  -2.3455   0.0000   0.0000   0.0000   0.3243
   8.250   1.4406   0.01362   0.00812  -0.1219  0.3671  1.0000  -2.4455   0.0000   0.0000   0.0000   0.3216
   8.500   1.4547   0.01427   0.00872  -0.1200  0.3506  1.0000  -2.5510   0.0000   0.0000   0.0000   0.3191
   8.750   1.4676   0.01501   0.00940  -0.1180  0.3346  1.0000  -2.6549   0.0000   0.0000   0.0000   0.3166
   9.000   1.4808   0.01577   0.01012  -0.1162  0.3182  1.0000  -2.7607   0.0000   0.0000   0.0000   0.3142
   9.250   1.4932   0.01662   0.01091  -0.1143  0.3021  1.0000  -2.8655   0.0000   0.0000   0.0000   0.3119
   9.500   1.5042   0.01758   0.01180  -0.1123  0.2857  1.0000  -2.9696   0.0000   0.0000   0.0000   0.3096
   9.750   1.5156   0.01855   0.01272  -0.1105  0.2689  1.0000  -3.0778   0.0000   0.0000   0.0000   0.3074
  10.000   1.5259   0.01961   0.01372  -0.1086  0.2524  1.0000  -3.1841   0.0000   0.0000   0.0000   0.3052
  10.250   1.5353   0.02077   0.01481  -0.1067  0.2362  1.0000  -3.2885   0.0000   0.0000   0.0000   0.3031
  10.500   1.5445   0.02196   0.01594  -0.1048  0.2201  1.0000  -3.3936   0.0000   0.0000   0.0000   0.3010
  10.750   1.5533   0.02321   0.01713  -0.1030  0.2049  1.0000  -3.4985   0.0000   0.0000   0.0000   0.2989
  11.000   1.5608   0.02457   0.01843  -0.1010  0.1902  1.0000  -3.6000   0.0000   0.0000   0.0000   0.2969
  11.250   1.5686   0.02592   0.01974  -0.0992  0.1756  1.0000  -3.7037   0.0000   0.0000   0.0000   0.2950
  11.500   1.5751   0.02740   0.02115  -0.0974  0.1621  1.0000  -3.8039   0.0000   0.0000   0.0000   0.2930
  11.750   1.5817   0.02889   0.02260  -0.0956  0.1491  1.0000  -3.9051   0.0000   0.0000   0.0000   0.2912
  12.000   1.5873   0.03049   0.02416  -0.0938  0.1373  1.0000  -4.0035   0.0000   0.0000   0.0000   0.2893
  12.250   1.5934   0.03206   0.02570  -0.0921  0.1262  1.0000  -4.1045   0.0000   0.0000   0.0000   0.2875
  12.500   1.5987   0.03374   0.02736  -0.0904  0.1158  1.0000  -4.2030   0.0000   0.0000   0.0000   0.2858
  12.750   1.6033   0.03552   0.02912  -0.0887  0.1064  1.0000  -4.3004   0.0000   0.0000   0.0000   0.2841
  13.000   1.6081   0.03734   0.03092  -0.0872  0.0980  1.0000  -4.4018   0.0000   0.0000   0.0000   0.2825
  13.250   1.6129   0.03920   0.03277  -0.0857  0.0903  1.0000  -4.5039   0.0000   0.0000   0.0000   0.2809
  13.500   1.6173   0.04113   0.03471  -0.0843  0.0835  1.0000  -4.6048   0.0000   0.0000   0.0000   0.2793
  13.750   1.6212   0.04316   0.03674  -0.0830  0.0776  1.0000  -4.7043   0.0000   0.0000   0.0000   0.2779
  14.000   1.6248   0.04526   0.03886  -0.0817  0.0724  1.0000  -4.8030   0.0000   0.0000   0.0000   0.2764
  14.250   1.6291   0.04734   0.04097  -0.0806  0.0677  1.0000  -4.9042   0.0000   0.0000   0.0000   0.2751
  14.500   1.6327   0.04953   0.04319  -0.0795  0.0636  1.0000  -5.0034   0.0000   0.0000   0.0000   0.2737
  14.750   1.6350   0.05189   0.04558  -0.0785  0.0600  1.0000  -5.0980   0.0000   0.0000   0.0000   0.2725
  15.000   1.6375   0.05428   0.04800  -0.0775  0.0566  1.0000  -5.1931   0.0000   0.0000   0.0000   0.2713
  15.250   1.6402   0.05669   0.05047  -0.0766  0.0535  1.0000  -5.2890   0.0000   0.0000   0.0000   0.2701
  15.500   1.6403   0.05942   0.05323  -0.0758  0.0509  1.0000  -5.3760   0.0000   0.0000   0.0000   0.2690
  15.750   1.6427   0.06194   0.05582  -0.0751  0.0481  1.0000  -5.4858   0.0000   0.0000   0.0000   0.2679
  16.000   1.6426   0.06480   0.05873  -0.0745  0.0458  1.0000  -5.5902   0.0000   0.0000   0.0000   0.2670
  16.250   1.6427   0.06769   0.06168  -0.0739  0.0435  1.0000  -5.6983   0.0000   0.0000   0.0000   0.2660
  16.500   1.6419   0.07071   0.06477  -0.0734  0.0413  1.0000  -5.8019   0.0000   0.0000   0.0000   0.2652
  16.750   1.6396   0.07397   0.06808  -0.0731  0.0394  1.0000  -5.8981   0.0000   0.0000   0.0000   0.2644
  17.000   1.6380   0.07719   0.07138  -0.0728  0.0374  1.0000  -5.9969   0.0000   0.0000   0.0000   0.2637
  17.250   1.6334   0.08084   0.07508  -0.0727  0.0357  1.0000  -6.0805   0.0000   0.0000   0.0000   0.2631
  17.500   1.6308   0.08430   0.07863  -0.0726  0.0340  1.0000  -6.1723   0.0000   0.0000   0.0000   0.2625
  17.750   1.6254   0.08815   0.08254  -0.0727  0.0326  1.0000  -6.2503   0.0000   0.0000   0.0000   0.2621
  18.000   1.6205   0.09200   0.08648  -0.0730  0.0313  1.0000  -6.3278   0.0000   0.0000   0.0000   0.2618
  18.250   1.6160   0.09587   0.09043  -0.0733  0.0302  1.0000  -6.4069   0.0000   0.0000   0.0000   0.2615
  18.500   1.6074   0.10034   0.09495  -0.0739  0.0293  1.0000  -6.4625   0.0000   0.0000   0.0000   0.2615
  18.750   1.6037   0.10417   0.09889  -0.0746  0.0283  1.0000  -6.5414   0.0000   0.0000   0.0000   0.2613
  19.000   1.5989   0.10819   0.10299  -0.0754  0.0275  1.0000  -6.6151   0.0000   0.0000   0.0000   0.2613
  19.250   1.5920   0.11256   0.10743  -0.0764  0.0268  1.0000  -6.6747   0.0000   0.0000   0.0000   0.2615
  19.500   1.5859   0.11686   0.11181  -0.0776  0.0262  1.0000  -6.7353   0.0000   0.0000   0.0000   0.2618
  19.750   1.5824   0.12079   0.11584  -0.0788  0.0255  1.0000  -6.8138   0.0000   0.0000   0.0000   0.2620
  20.000   1.5784   0.12483   0.11996  -0.0801  0.0249  1.0000  -6.8885   0.0000   0.0000   0.0000   0.2623


