xflr5 v6.61

 Calculated polar for: QX0026  thickness=14.08

 1 1 Reynolds number fixed          Mach number fixed         

 xtrf =   1.000 (top)        1.000 (bottom)
 Mach =   0.000     Re =     0.500 e 6     Ncrit =   9.000

  alpha     CL        CD       CDp       Cm    Top Xtr Bot Xtr   Cpmin    Chinge    XCp    
 ------- -------- --------- --------- -------- ------- ------- -------- --------- ---------
  -9.750  -0.3091   0.05949   0.05663  -0.0992  0.8510  0.0282  -3.8320   0.0000   0.0000   0.0000  -0.0968
  -9.500  -0.3006   0.05638   0.05352  -0.1025  0.8468  0.0285  -3.7597   0.0000   0.0000   0.0000  -0.1167
  -9.250  -0.2810   0.05621   0.05334  -0.1036  0.8429  0.0293  -3.5421   0.0000   0.0000   0.0000  -0.1448
  -9.000  -0.2523   0.05881   0.05593  -0.1020  0.8391  0.0313  -3.1896   0.0000   0.0000   0.0000  -0.1815
  -8.750  -0.2385   0.05731   0.05441  -0.1047  0.8354  0.0341  -3.0393   0.0000   0.0000   0.0000  -0.2162
  -8.500  -0.2339   0.04827   0.04526  -0.1196  0.8304  0.0378  -3.1461   0.0000   0.0000   0.0000  -0.2880
  -8.250  -0.2217   0.04528   0.04214  -0.1236  0.8264  0.0412  -3.0683   0.0000   0.0000   0.0000  -0.3347
  -8.000  -0.2699   0.01834   0.01212  -0.1337  0.8212  0.0307  -4.4272   0.0000   0.0000   0.0000  -0.2704
  -7.750  -0.2434   0.01775   0.01154  -0.1339  0.8178  0.0315  -4.2315   0.0000   0.0000   0.0000  -0.3266
  -7.500  -0.2164   0.01716   0.01085  -0.1340  0.8148  0.0324  -4.0485   0.0000   0.0000   0.0000  -0.3975
  -7.250  -0.1894   0.01649   0.00995  -0.1341  0.8122  0.0334  -3.8839   0.0000   0.0000   0.0000  -0.4888
  -7.000  -0.1627   0.01586   0.00938  -0.1342  0.8086  0.0342  -3.7070   0.0000   0.0000   0.0000  -0.6092
  -6.750  -0.1353   0.01537   0.00883  -0.1343  0.8055  0.0353  -3.5377   0.0000   0.0000   0.0000  -0.7823
  -6.500  -0.1077   0.01485   0.00818  -0.1344  0.8028  0.0366  -3.3774   0.0000   0.0000   0.0000  -1.0457
  -6.250  -0.0804   0.01441   0.00777  -0.1345  0.7996  0.0378  -3.2043   0.0000   0.0000   0.0000  -1.4849
  -6.000  -0.0525   0.01401   0.00729  -0.1346  0.7962  0.0394  -3.0530   0.0000   0.0000   0.0000  -2.4019
  -5.750  -0.0249   0.01353   0.00681  -0.1348  0.7934  0.0408  -2.8985   0.0000   0.0000   0.0000  -5.3328
  -5.500   0.0033   0.01323   0.00644  -0.1349  0.7907  0.0428  -2.7443   0.0000   0.0000   0.0000  42.0165
  -5.250   0.0309   0.01282   0.00607  -0.1350  0.7871  0.0447  -2.5927   0.0000   0.0000   0.0000   4.7511
  -5.000   0.0593   0.01255   0.00573  -0.1352  0.7840  0.0470  -2.4470   0.0000   0.0000   0.0000   2.5929
  -4.750   0.0876   0.01219   0.00538  -0.1354  0.7814  0.0496  -2.3042   0.0000   0.0000   0.0000   1.8370
  -4.500   0.1156   0.01189   0.00509  -0.1356  0.7780  0.0526  -2.1667   0.0000   0.0000   0.0000   1.4513
  -4.250   0.1441   0.01165   0.00482  -0.1357  0.7747  0.0561  -2.0294   0.0000   0.0000   0.0000   1.2139
  -4.000   0.1728   0.01139   0.00456  -0.1360  0.7718  0.0605  -1.8921   0.0000   0.0000   0.0000   1.0538
  -3.750   0.2014   0.01116   0.00432  -0.1362  0.7688  0.0660  -1.7628   0.0000   0.0000   0.0000   0.9398
  -3.500   0.2297   0.01089   0.00411  -0.1364  0.7651  0.0734  -1.6388   0.0000   0.0000   0.0000   0.8547
  -3.250   0.2585   0.01065   0.00389  -0.1366  0.7620  0.0849  -1.5153   0.0000   0.0000   0.0000   0.7874
  -3.000   0.2873   0.01040   0.00370  -0.1369  0.7592  0.1041  -1.3935   0.0000   0.0000   0.0000   0.7337
  -2.750   0.3155   0.01015   0.00359  -0.1371  0.7552  0.1333  -1.2767   0.0000   0.0000   0.0000   0.6904
  -2.500   0.3443   0.00995   0.00348  -0.1374  0.7519  0.1672  -1.1627   0.0000   0.0000   0.0000   0.6538
  -2.250   0.3734   0.00978   0.00338  -0.1377  0.7490  0.2009  -1.0500   0.0000   0.0000   0.0000   0.6226
  -2.000   0.4016   0.00960   0.00334  -0.1379  0.7448  0.2365  -0.9442   0.0000   0.0000   0.0000   0.5964
  -1.500   0.4592   0.00926   0.00320  -0.1385  0.7379  0.3240  -0.7851   0.0000   0.0000   0.0000   0.5531
  -1.250   0.4874   0.00906   0.00319  -0.1387  0.7336  0.3811  -0.8029   0.0000   0.0000   0.0000   0.5355
  -1.000   0.5161   0.00884   0.00315  -0.1390  0.7301  0.4518  -0.8216   0.0000   0.0000   0.0000   0.5196
  -0.750   0.5441   0.00864   0.00318  -0.1391  0.7261  0.5315  -0.8408   0.0000   0.0000   0.0000   0.5055
  -0.500   0.5720   0.00846   0.00320  -0.1391  0.7219  0.6026  -0.8606   0.0000   0.0000   0.0000   0.4926
   0.000   0.6272   0.00826   0.00328  -0.1388  0.7136  0.7173  -0.9013   0.0000   0.0000   0.0000   0.4699
   0.250   0.6549   0.00819   0.00328  -0.1386  0.7096  0.7579  -0.9231   0.0000   0.0000   0.0000   0.4599
   0.500   0.6815   0.00813   0.00332  -0.1382  0.7050  0.7951  -0.9447   0.0000   0.0000   0.0000   0.4507
   0.750   0.7078   0.00807   0.00333  -0.1377  0.7004  0.8319  -0.9668   0.0000   0.0000   0.0000   0.4420
   1.000   0.7327   0.00800   0.00335  -0.1369  0.6959  0.8700  -0.9891   0.0000   0.0000   0.0000   0.4339
   1.250   0.7557   0.00791   0.00334  -0.1355  0.6909  0.9180  -1.0112   0.0000   0.0000   0.0000   0.4260
   1.500   0.7911   0.00782   0.00326  -0.1369  0.6862  1.0000  -1.0409   0.0000   0.0000   0.0000   0.4195
   1.750   0.8198   0.00787   0.00327  -0.1372  0.6807  1.0000  -1.0676   0.0000   0.0000   0.0000   0.4134
   2.000   0.8485   0.00793   0.00329  -0.1374  0.6754  1.0000  -1.0958   0.0000   0.0000   0.0000   0.4077
   2.250   0.8770   0.00799   0.00331  -0.1376  0.6698  1.0000  -1.1244   0.0000   0.0000   0.0000   0.4023
   2.500   0.9052   0.00806   0.00336  -0.1377  0.6639  1.0000  -1.1534   0.0000   0.0000   0.0000   0.3973
   2.750   0.9336   0.00814   0.00338  -0.1379  0.6582  1.0000  -1.1841   0.0000   0.0000   0.0000   0.3925
   3.000   0.9612   0.00821   0.00345  -0.1379  0.6513  1.0000  -1.2154   0.0000   0.0000   0.0000   0.3879
   3.250   0.9891   0.00830   0.00351  -0.1380  0.6448  1.0000  -1.2475   0.0000   0.0000   0.0000   0.3836
   3.500   1.0168   0.00839   0.00356  -0.1380  0.6381  1.0000  -1.2815   0.0000   0.0000   0.0000   0.3795
   3.750   1.0440   0.00848   0.00366  -0.1379  0.6302  1.0000  -1.3177   0.0000   0.0000   0.0000   0.3756
   4.000   1.0711   0.00858   0.00375  -0.1378  0.6223  1.0000  -1.3543   0.0000   0.0000   0.0000   0.3719
   4.250   1.0980   0.00870   0.00384  -0.1377  0.6139  1.0000  -1.3941   0.0000   0.0000   0.0000   0.3683
   4.500   1.1245   0.00883   0.00394  -0.1376  0.6048  1.0000  -1.4351   0.0000   0.0000   0.0000   0.3648
   4.750   1.1507   0.00897   0.00406  -0.1373  0.5951  1.0000  -1.4772   0.0000   0.0000   0.0000   0.3615
   5.000   1.1766   0.00912   0.00420  -0.1370  0.5849  1.0000  -1.5226   0.0000   0.0000   0.0000   0.3583
   5.250   1.2021   0.00929   0.00435  -0.1367  0.5738  1.0000  -1.5695   0.0000   0.0000   0.0000   0.3552
   5.500   1.2270   0.00948   0.00451  -0.1362  0.5618  1.0000  -1.6191   0.0000   0.0000   0.0000   0.3522
   5.750   1.2515   0.00969   0.00470  -0.1357  0.5494  1.0000  -1.6733   0.0000   0.0000   0.0000   0.3492
   6.000   1.2752   0.00994   0.00490  -0.1351  0.5359  1.0000  -1.7354   0.0000   0.0000   0.0000   0.3463
   6.250   1.2983   0.01020   0.00513  -0.1343  0.5208  1.0000  -1.8043   0.0000   0.0000   0.0000   0.3435
   6.500   1.3204   0.01051   0.00539  -0.1334  0.5055  1.0000  -1.8786   0.0000   0.0000   0.0000   0.3407
   6.750   1.3414   0.01086   0.00569  -0.1324  0.4885  1.0000  -1.9542   0.0000   0.0000   0.0000   0.3380
   7.000   1.3613   0.01125   0.00601  -0.1311  0.4705  1.0000  -2.0327   0.0000   0.0000   0.0000   0.3353
   7.250   1.3798   0.01169   0.00638  -0.1296  0.4520  1.0000  -2.1114   0.0000   0.0000   0.0000   0.3325
   7.500   1.3969   0.01217   0.00679  -0.1279  0.4335  1.0000  -2.1902   0.0000   0.0000   0.0000   0.3298
   7.750   1.4109   0.01269   0.00724  -0.1257  0.4158  1.0000  -2.2653   0.0000   0.0000   0.0000   0.3269
   8.000   1.4250   0.01325   0.00774  -0.1235  0.3977  1.0000  -2.3411   0.0000   0.0000   0.0000   0.3241
   8.250   1.4387   0.01387   0.00830  -0.1215  0.3803  1.0000  -2.4384   0.0000   0.0000   0.0000   0.3214
   8.500   1.4518   0.01455   0.00892  -0.1194  0.3637  1.0000  -2.5412   0.0000   0.0000   0.0000   0.3188
   8.750   1.4647   0.01529   0.00961  -0.1174  0.3472  1.0000  -2.6449   0.0000   0.0000   0.0000   0.3163
   9.000   1.4774   0.01607   0.01034  -0.1155  0.3311  1.0000  -2.7492   0.0000   0.0000   0.0000   0.3139
   9.250   1.4889   0.01696   0.01117  -0.1135  0.3152  1.0000  -2.8515   0.0000   0.0000   0.0000   0.3116
   9.500   1.5009   0.01786   0.01203  -0.1117  0.2989  1.0000  -2.9568   0.0000   0.0000   0.0000   0.3093
   9.750   1.5116   0.01887   0.01298  -0.1097  0.2826  1.0000  -3.0627   0.0000   0.0000   0.0000   0.3071
  10.000   1.5211   0.01998   0.01403  -0.1078  0.2664  1.0000  -3.1663   0.0000   0.0000   0.0000   0.3049
  10.250   1.5310   0.02110   0.01510  -0.1059  0.2497  1.0000  -3.2721   0.0000   0.0000   0.0000   0.3028
  10.500   1.5397   0.02232   0.01627  -0.1040  0.2335  1.0000  -3.3756   0.0000   0.0000   0.0000   0.3007
  10.750   1.5474   0.02365   0.01753  -0.1021  0.2179  1.0000  -3.4765   0.0000   0.0000   0.0000   0.2986
  11.000   1.5555   0.02497   0.01880  -0.1002  0.2024  1.0000  -3.5798   0.0000   0.0000   0.0000   0.2966
  11.250   1.5625   0.02639   0.02017  -0.0984  0.1877  1.0000  -3.6804   0.0000   0.0000   0.0000   0.2947
  11.500   1.5686   0.02790   0.02162  -0.0965  0.1733  1.0000  -3.7790   0.0000   0.0000   0.0000   0.2927
  11.750   1.5749   0.02943   0.02311  -0.0947  0.1598  1.0000  -3.8786   0.0000   0.0000   0.0000   0.2909
  12.000   1.5801   0.03106   0.02469  -0.0929  0.1473  1.0000  -3.9756   0.0000   0.0000   0.0000   0.2890
  12.250   1.5855   0.03270   0.02630  -0.0911  0.1357  1.0000  -4.0737   0.0000   0.0000   0.0000   0.2872
  12.500   1.5906   0.03441   0.02799  -0.0895  0.1248  1.0000  -4.1713   0.0000   0.0000   0.0000   0.2855
  12.750   1.5949   0.03624   0.02979  -0.0878  0.1147  1.0000  -4.2664   0.0000   0.0000   0.0000   0.2838
  13.000   1.5990   0.03813   0.03166  -0.0863  0.1055  1.0000  -4.3646   0.0000   0.0000   0.0000   0.2822
  13.250   1.6034   0.04004   0.03357  -0.0848  0.0971  1.0000  -4.4644   0.0000   0.0000   0.0000   0.2806
  13.500   1.6073   0.04204   0.03557  -0.0834  0.0897  1.0000  -4.5628   0.0000   0.0000   0.0000   0.2791
  13.750   1.6109   0.04412   0.03765  -0.0821  0.0831  1.0000  -4.6603   0.0000   0.0000   0.0000   0.2776
  14.000   1.6138   0.04631   0.03985  -0.0808  0.0775  1.0000  -4.7556   0.0000   0.0000   0.0000   0.2762
  14.250   1.6164   0.04857   0.04213  -0.0797  0.0724  1.0000  -4.8501   0.0000   0.0000   0.0000   0.2749
  14.500   1.6199   0.05080   0.04440  -0.0786  0.0679  1.0000  -4.9477   0.0000   0.0000   0.0000   0.2736
  14.750   1.6224   0.05316   0.04680  -0.0776  0.0640  1.0000  -5.0417   0.0000   0.0000   0.0000   0.2723
  15.000   1.6231   0.05577   0.04943  -0.0766  0.0606  1.0000  -5.1289   0.0000   0.0000   0.0000   0.2711
  15.250   1.6256   0.05823   0.05194  -0.0758  0.0572  1.0000  -5.2229   0.0000   0.0000   0.0000   0.2700
  15.500   1.6266   0.06089   0.05466  -0.0751  0.0542  1.0000  -5.3117   0.0000   0.0000   0.0000   0.2689
  15.750   1.6261   0.06377   0.05758  -0.0744  0.0515  1.0000  -5.4025   0.0000   0.0000   0.0000   0.2679
  16.000   1.6273   0.06651   0.06040  -0.0738  0.0489  1.0000  -5.5101   0.0000   0.0000   0.0000   0.2670
  16.250   1.6241   0.06981   0.06373  -0.0733  0.0467  1.0000  -5.5996   0.0000   0.0000   0.0000   0.2661
  16.500   1.6252   0.07266   0.06667  -0.0729  0.0443  1.0000  -5.7103   0.0000   0.0000   0.0000   0.2653
  16.750   1.6210   0.07620   0.07025  -0.0726  0.0424  1.0000  -5.7953   0.0000   0.0000   0.0000   0.2646
  17.000   1.6202   0.07935   0.07350  -0.0724  0.0402  1.0000  -5.8963   0.0000   0.0000   0.0000   0.2639
  17.250   1.6146   0.08318   0.07737  -0.0723  0.0386  1.0000  -5.9726   0.0000   0.0000   0.0000   0.2634
  17.500   1.6125   0.08660   0.08089  -0.0723  0.0366  1.0000  -6.0655   0.0000   0.0000   0.0000   0.2629
  17.750   1.6047   0.09083   0.08516  -0.0726  0.0354  1.0000  -6.1281   0.0000   0.0000   0.0000   0.2626
  18.000   1.6026   0.09434   0.08878  -0.0728  0.0337  1.0000  -6.2182   0.0000   0.0000   0.0000   0.2622
  18.250   1.5959   0.09854   0.09304  -0.0734  0.0326  1.0000  -6.2840   0.0000   0.0000   0.0000   0.2621
  18.500   1.5904   0.10262   0.09720  -0.0740  0.0315  1.0000  -6.3524   0.0000   0.0000   0.0000   0.2620
  18.750   1.5861   0.10655   0.10123  -0.0747  0.0304  1.0000  -6.4271   0.0000   0.0000   0.0000   0.2619
  19.000   1.5795   0.11087   0.10561  -0.0757  0.0296  1.0000  -6.4878   0.0000   0.0000   0.0000   0.2621
  19.250   1.5739   0.11507   0.10989  -0.0767  0.0288  1.0000  -6.5503   0.0000   0.0000   0.0000   0.2623
  19.500   1.5706   0.11895   0.11387  -0.0778  0.0279  1.0000  -6.6255   0.0000   0.0000   0.0000   0.2625
  19.750   1.5667   0.12297   0.11795  -0.0791  0.0273  1.0000  -6.6979   0.0000   0.0000   0.0000   0.2627
  20.000   1.5613   0.12721   0.12224  -0.0807  0.0267  1.0000  -6.7613   0.0000   0.0000   0.0000   0.2632


