xflr5 v6.61

 Calculated polar for: QX0026  thickness=14.08

 1 1 Reynolds number fixed          Mach number fixed         

 xtrf =   1.000 (top)        1.000 (bottom)
 Mach =   0.000     Re =     0.960 e 6     Ncrit =   9.000

  alpha     CL        CD       CDp       Cm    Top Xtr Bot Xtr   Cpmin    Chinge    XCp    
 ------- -------- --------- --------- -------- ------- ------- -------- --------- ---------
 -10.000  -0.4989   0.01699   0.01167  -0.1301  0.8118  0.0208  -6.5196   0.0000   0.0000   0.0000  -0.0298
  -9.750  -0.4737   0.01621   0.01089  -0.1303  0.8085  0.0212  -6.2882   0.0000   0.0000   0.0000  -0.0443
  -9.500  -0.4470   0.01574   0.01039  -0.1305  0.8054  0.0216  -6.0445   0.0000   0.0000   0.0000  -0.0614
  -9.250  -0.4202   0.01530   0.00986  -0.1306  0.8026  0.0220  -5.8082   0.0000   0.0000   0.0000  -0.0808
  -9.000  -0.3931   0.01482   0.00930  -0.1308  0.7995  0.0225  -5.5788   0.0000   0.0000   0.0000  -0.1032
  -8.750  -0.3656   0.01441   0.00879  -0.1310  0.7964  0.0230  -5.3515   0.0000   0.0000   0.0000  -0.1293
  -8.500  -0.3390   0.01383   0.00820  -0.1312  0.7935  0.0236  -5.1292   0.0000   0.0000   0.0000  -0.1586
  -8.250  -0.3114   0.01349   0.00781  -0.1313  0.7908  0.0241  -4.9094   0.0000   0.0000   0.0000  -0.1944
  -8.000  -0.2836   0.01311   0.00739  -0.1315  0.7876  0.0247  -4.6979   0.0000   0.0000   0.0000  -0.2376
  -7.750  -0.2555   0.01278   0.00697  -0.1317  0.7846  0.0253  -4.4911   0.0000   0.0000   0.0000  -0.2907
  -7.500  -0.2282   0.01230   0.00648  -0.1319  0.7819  0.0260  -4.2913   0.0000   0.0000   0.0000  -0.3549
  -7.250  -0.2000   0.01202   0.00617  -0.1321  0.7791  0.0268  -4.0920   0.0000   0.0000   0.0000  -0.4399
  -7.000  -0.1716   0.01175   0.00584  -0.1323  0.7760  0.0276  -3.9006   0.0000   0.0000   0.0000  -0.5539
  -6.750  -0.1437   0.01135   0.00542  -0.1325  0.7731  0.0285  -3.7139   0.0000   0.0000   0.0000  -0.7097
  -6.500  -0.1153   0.01110   0.00514  -0.1327  0.7705  0.0294  -3.5269   0.0000   0.0000   0.0000  -0.9456
  -6.250  -0.0866   0.01087   0.00486  -0.1329  0.7675  0.0305  -3.3536   0.0000   0.0000   0.0000  -1.3418
  -6.000  -0.0583   0.01054   0.00454  -0.1332  0.7644  0.0317  -3.1798   0.0000   0.0000   0.0000  -2.1154
  -5.750  -0.0295   0.01035   0.00430  -0.1334  0.7616  0.0331  -3.0090   0.0000   0.0000   0.0000  -4.4232
  -5.500  -0.0010   0.01008   0.00402  -0.1336  0.7589  0.0345  -2.8420   0.0000   0.0000   0.0000  -144.5369
  -5.250   0.0280   0.00989   0.00381  -0.1339  0.7557  0.0361  -2.6765   0.0000   0.0000   0.0000   5.1795
  -5.000   0.0567   0.00964   0.00357  -0.1341  0.7527  0.0380  -2.5218   0.0000   0.0000   0.0000   2.6816
  -4.750   0.0856   0.00948   0.00336  -0.1344  0.7500  0.0401  -2.3701   0.0000   0.0000   0.0000   1.8604
  -4.500   0.1145   0.00929   0.00318  -0.1346  0.7469  0.0424  -2.2197   0.0000   0.0000   0.0000   1.4541
  -4.250   0.1434   0.00909   0.00299  -0.1349  0.7436  0.0450  -2.0730   0.0000   0.0000   0.0000   1.2115
  -4.000   0.1724   0.00893   0.00281  -0.1351  0.7406  0.0483  -1.9288   0.0000   0.0000   0.0000   1.0500
  -3.750   0.2014   0.00878   0.00266  -0.1354  0.7376  0.0524  -1.7923   0.0000   0.0000   0.0000   0.9350
  -3.500   0.2304   0.00861   0.00252  -0.1356  0.7341  0.0579  -1.6603   0.0000   0.0000   0.0000   0.8489
  -3.250   0.2595   0.00846   0.00238  -0.1359  0.7309  0.0659  -1.5310   0.0000   0.0000   0.0000   0.7821
  -3.000   0.2884   0.00830   0.00226  -0.1361  0.7278  0.0785  -1.4043   0.0000   0.0000   0.0000   0.7288
  -2.750   0.3174   0.00811   0.00215  -0.1364  0.7240  0.0977  -1.2816   0.0000   0.0000   0.0000   0.6854
  -2.500   0.3463   0.00794   0.00206  -0.1367  0.7205  0.1218  -1.1655   0.0000   0.0000   0.0000   0.6492
  -2.250   0.3753   0.00780   0.00199  -0.1370  0.7171  0.1483  -1.0517   0.0000   0.0000   0.0000   0.6185
  -2.000   0.4043   0.00766   0.00194  -0.1373  0.7132  0.1764  -0.9426   0.0000   0.0000   0.0000   0.5923
  -1.750   0.4333   0.00754   0.00188  -0.1376  0.7096  0.2036  -0.8392   0.0000   0.0000   0.0000   0.5695
  -1.500   0.4622   0.00742   0.00185  -0.1379  0.7057  0.2353  -0.7896   0.0000   0.0000   0.0000   0.5496
  -1.250   0.4912   0.00729   0.00182  -0.1382  0.7017  0.2702  -0.8080   0.0000   0.0000   0.0000   0.5320
  -1.000   0.5200   0.00718   0.00179  -0.1384  0.6980  0.3116  -0.8266   0.0000   0.0000   0.0000   0.5164
  -0.750   0.5489   0.00702   0.00178  -0.1388  0.6935  0.3628  -0.8461   0.0000   0.0000   0.0000   0.5025
  -0.500   0.5777   0.00686   0.00178  -0.1391  0.6894  0.4250  -0.8663   0.0000   0.0000   0.0000   0.4900
  -0.250   0.6063   0.00669   0.00180  -0.1393  0.6851  0.4959  -0.8867   0.0000   0.0000   0.0000   0.4786
   0.000   0.6349   0.00655   0.00183  -0.1396  0.6805  0.5621  -0.9078   0.0000   0.0000   0.0000   0.4682
   0.250   0.6634   0.00645   0.00186  -0.1397  0.6761  0.6187  -0.9300   0.0000   0.0000   0.0000   0.4587
   0.500   0.6918   0.00637   0.00191  -0.1399  0.6711  0.6737  -0.9527   0.0000   0.0000   0.0000   0.4498
   0.750   0.7201   0.00635   0.00195  -0.1399  0.6665  0.7131  -0.9758   0.0000   0.0000   0.0000   0.4416
   1.000   0.7484   0.00631   0.00200  -0.1400  0.6611  0.7459  -1.0001   0.0000   0.0000   0.0000   0.4340
   1.250   0.7763   0.00630   0.00204  -0.1400  0.6560  0.7774  -1.0251   0.0000   0.0000   0.0000   0.4269
   1.500   0.8040   0.00627   0.00210  -0.1399  0.6504  0.8081  -1.0503   0.0000   0.0000   0.0000   0.4203
   1.750   0.8311   0.00626   0.00215  -0.1397  0.6448  0.8415  -1.0764   0.0000   0.0000   0.0000   0.4140
   2.250   0.8803   0.00617   0.00225  -0.1379  0.6326  0.9310  -1.1286   0.0000   0.0000   0.0000   0.4020
   2.500   0.9123   0.00616   0.00225  -0.1388  0.6264  1.0000  -1.1602   0.0000   0.0000   0.0000   0.3972
   2.750   0.9407   0.00625   0.00231  -0.1390  0.6193  1.0000  -1.1910   0.0000   0.0000   0.0000   0.3924
   3.000   0.9690   0.00634   0.00237  -0.1391  0.6119  1.0000  -1.2230   0.0000   0.0000   0.0000   0.3880
   3.250   0.9969   0.00644   0.00244  -0.1392  0.6043  1.0000  -1.2552   0.0000   0.0000   0.0000   0.3837
   3.500   1.0246   0.00656   0.00252  -0.1393  0.5960  1.0000  -1.2894   0.0000   0.0000   0.0000   0.3797
   3.750   1.0520   0.00669   0.00261  -0.1393  0.5868  1.0000  -1.3260   0.0000   0.0000   0.0000   0.3758
   4.000   1.0792   0.00682   0.00271  -0.1393  0.5769  1.0000  -1.3628   0.0000   0.0000   0.0000   0.3721
   4.250   1.1062   0.00697   0.00282  -0.1392  0.5666  1.0000  -1.4032   0.0000   0.0000   0.0000   0.3686
   4.500   1.1330   0.00713   0.00294  -0.1391  0.5551  1.0000  -1.4447   0.0000   0.0000   0.0000   0.3652
   4.750   1.1593   0.00731   0.00308  -0.1389  0.5426  1.0000  -1.4869   0.0000   0.0000   0.0000   0.3619
   5.000   1.1851   0.00751   0.00323  -0.1387  0.5297  1.0000  -1.5331   0.0000   0.0000   0.0000   0.3588
   5.250   1.2104   0.00774   0.00340  -0.1383  0.5157  1.0000  -1.5799   0.0000   0.0000   0.0000   0.3557
   5.500   1.2352   0.00798   0.00359  -0.1379  0.4997  1.0000  -1.6304   0.0000   0.0000   0.0000   0.3527
   5.750   1.2595   0.00826   0.00380  -0.1374  0.4836  1.0000  -1.6851   0.0000   0.0000   0.0000   0.3498
   6.000   1.2827   0.00858   0.00404  -0.1367  0.4664  1.0000  -1.7475   0.0000   0.0000   0.0000   0.3470
   6.250   1.3055   0.00892   0.00430  -0.1360  0.4478  1.0000  -1.8184   0.0000   0.0000   0.0000   0.3442
   6.500   1.3276   0.00928   0.00459  -0.1351  0.4287  1.0000  -1.8928   0.0000   0.0000   0.0000   0.3414
   6.750   1.3488   0.00968   0.00490  -0.1341  0.4092  1.0000  -1.9699   0.0000   0.0000   0.0000   0.3387
   7.000   1.3694   0.01009   0.00523  -0.1331  0.3905  1.0000  -2.0516   0.0000   0.0000   0.0000   0.3361
   7.250   1.3889   0.01053   0.00558  -0.1318  0.3715  1.0000  -2.1338   0.0000   0.0000   0.0000   0.3334
   7.500   1.4075   0.01099   0.00596  -0.1304  0.3535  1.0000  -2.2166   0.0000   0.0000   0.0000   0.3308
   7.750   1.4241   0.01145   0.00635  -0.1286  0.3370  1.0000  -2.2967   0.0000   0.0000   0.0000   0.3281
   8.000   1.4406   0.01194   0.00677  -0.1269  0.3209  1.0000  -2.3845   0.0000   0.0000   0.0000   0.3255
   8.250   1.4558   0.01251   0.00727  -0.1250  0.3043  1.0000  -2.4925   0.0000   0.0000   0.0000   0.3229
   8.500   1.4706   0.01313   0.00781  -0.1231  0.2872  1.0000  -2.6007   0.0000   0.0000   0.0000   0.3203
   8.750   1.4847   0.01381   0.00842  -0.1213  0.2697  1.0000  -2.7086   0.0000   0.0000   0.0000   0.3179
   9.000   1.4982   0.01455   0.00909  -0.1194  0.2530  1.0000  -2.8162   0.0000   0.0000   0.0000   0.3155
   9.250   1.5110   0.01536   0.00983  -0.1175  0.2370  1.0000  -2.9264   0.0000   0.0000   0.0000   0.3131
   9.500   1.5239   0.01620   0.01060  -0.1158  0.2209  1.0000  -3.0388   0.0000   0.0000   0.0000   0.3109
   9.750   1.5360   0.01711   0.01144  -0.1139  0.2057  1.0000  -3.1504   0.0000   0.0000   0.0000   0.3087
  10.000   1.5475   0.01808   0.01234  -0.1121  0.1912  1.0000  -3.2614   0.0000   0.0000   0.0000   0.3065
  10.250   1.5590   0.01907   0.01328  -0.1104  0.1770  1.0000  -3.3735   0.0000   0.0000   0.0000   0.3044
  10.500   1.5688   0.02020   0.01433  -0.1085  0.1628  1.0000  -3.4818   0.0000   0.0000   0.0000   0.3023
  10.750   1.5788   0.02132   0.01541  -0.1067  0.1494  1.0000  -3.5920   0.0000   0.0000   0.0000   0.3003
  11.000   1.5878   0.02255   0.01657  -0.1048  0.1369  1.0000  -3.6998   0.0000   0.0000   0.0000   0.2982
  11.250   1.5970   0.02377   0.01775  -0.1031  0.1251  1.0000  -3.8095   0.0000   0.0000   0.0000   0.2963
  11.500   1.6057   0.02505   0.01899  -0.1013  0.1147  1.0000  -3.9181   0.0000   0.0000   0.0000   0.2944
  11.750   1.6140   0.02638   0.02028  -0.0996  0.1053  1.0000  -4.0266   0.0000   0.0000   0.0000   0.2925
  12.000   1.6223   0.02772   0.02160  -0.0979  0.0966  1.0000  -4.1362   0.0000   0.0000   0.0000   0.2906
  12.250   1.6301   0.02912   0.02298  -0.0962  0.0886  1.0000  -4.2448   0.0000   0.0000   0.0000   0.2888
  12.500   1.6376   0.03057   0.02442  -0.0946  0.0814  1.0000  -4.3539   0.0000   0.0000   0.0000   0.2871
  12.750   1.6447   0.03207   0.02591  -0.0930  0.0751  1.0000  -4.4659   0.0000   0.0000   0.0000   0.2854
  13.000   1.6518   0.03362   0.02745  -0.0915  0.0695  1.0000  -4.5784   0.0000   0.0000   0.0000   0.2837
  13.250   1.6587   0.03522   0.02906  -0.0900  0.0646  1.0000  -4.6908   0.0000   0.0000   0.0000   0.2821
  13.500   1.6651   0.03689   0.03073  -0.0886  0.0601  1.0000  -4.8025   0.0000   0.0000   0.0000   0.2805
  13.750   1.6715   0.03861   0.03247  -0.0873  0.0562  1.0000  -4.9145   0.0000   0.0000   0.0000   0.2789
  14.000   1.6785   0.04030   0.03419  -0.0860  0.0528  1.0000  -5.0295   0.0000   0.0000   0.0000   0.2775
  14.250   1.6846   0.04211   0.03602  -0.0848  0.0498  1.0000  -5.1418   0.0000   0.0000   0.0000   0.2760
  14.500   1.6897   0.04404   0.03798  -0.0836  0.0469  1.0000  -5.2509   0.0000   0.0000   0.0000   0.2746
  14.750   1.6960   0.04589   0.03987  -0.0826  0.0443  1.0000  -5.3651   0.0000   0.0000   0.0000   0.2732
  15.000   1.7007   0.04794   0.04194  -0.0815  0.0419  1.0000  -5.4732   0.0000   0.0000   0.0000   0.2719
  15.250   1.7051   0.05005   0.04408  -0.0805  0.0395  1.0000  -5.5835   0.0000   0.0000   0.0000   0.2706
  15.500   1.7095   0.05219   0.04627  -0.0796  0.0374  1.0000  -5.7169   0.0000   0.0000   0.0000   0.2694
  15.750   1.7116   0.05460   0.04871  -0.0786  0.0353  1.0000  -5.8405   0.0000   0.0000   0.0000   0.2682
  16.000   1.7151   0.05690   0.05107  -0.0778  0.0332  1.0000  -5.9717   0.0000   0.0000   0.0000   0.2670
  16.250   1.7170   0.05942   0.05363  -0.0770  0.0312  1.0000  -6.0952   0.0000   0.0000   0.0000   0.2659
  16.500   1.7171   0.06217   0.05642  -0.0763  0.0294  1.0000  -6.2102   0.0000   0.0000   0.0000   0.2649
  16.750   1.7186   0.06481   0.05912  -0.0757  0.0276  1.0000  -6.3323   0.0000   0.0000   0.0000   0.2639
  17.000   1.7174   0.06781   0.06217  -0.0751  0.0262  1.0000  -6.4406   0.0000   0.0000   0.0000   0.2630
  17.250   1.7170   0.07074   0.06516  -0.0746  0.0249  1.0000  -6.5534   0.0000   0.0000   0.0000   0.2621
  17.500   1.7141   0.07403   0.06850  -0.0742  0.0238  1.0000  -6.6529   0.0000   0.0000   0.0000   0.2613
  17.750   1.7133   0.07711   0.07167  -0.0739  0.0228  1.0000  -6.7630   0.0000   0.0000   0.0000   0.2606
  18.000   1.7094   0.08061   0.07522  -0.0737  0.0220  1.0000  -6.8572   0.0000   0.0000   0.0000   0.2599
  18.250   1.7063   0.08406   0.07875  -0.0737  0.0212  1.0000  -6.9550   0.0000   0.0000   0.0000   0.2593
  18.500   1.7038   0.08749   0.08226  -0.0737  0.0205  1.0000  -7.0576   0.0000   0.0000   0.0000   0.2588
  18.750   1.6989   0.09124   0.08608  -0.0739  0.0199  1.0000  -7.1489   0.0000   0.0000   0.0000   0.2583
  19.000   1.6925   0.09528   0.09019  -0.0743  0.0194  1.0000  -7.2288   0.0000   0.0000   0.0000   0.2580
  19.250   1.6896   0.09888   0.09388  -0.0747  0.0189  1.0000  -7.3286   0.0000   0.0000   0.0000   0.2577
  19.500   1.6852   0.10271   0.09780  -0.0753  0.0185  1.0000  -7.4183   0.0000   0.0000   0.0000   0.2575
  19.750   1.6794   0.10677   0.10194  -0.0760  0.0181  1.0000  -7.4986   0.0000   0.0000   0.0000   0.2574
  20.000   1.6720   0.11113   0.10637  -0.0770  0.0178  1.0000  -7.5667   0.0000   0.0000   0.0000   0.2575


