xflr5 v6.61

 Calculated polar for: QX0026  thickness=14.08

 1 1 Reynolds number fixed          Mach number fixed         

 xtrf =   1.000 (top)        1.000 (bottom)
 Mach =   0.000     Re =     0.760 e 6     Ncrit =   9.000

  alpha     CL        CD       CDp       Cm    Top Xtr Bot Xtr   Cpmin    Chinge    XCp    
 ------- -------- --------- --------- -------- ------- ------- -------- --------- ---------
 -10.000  -0.4893   0.01960   0.01438  -0.1307  0.8238  0.0223  -6.3389   0.0000   0.0000   0.0000  -0.0365
  -9.750  -0.4643   0.01877   0.01336  -0.1309  0.8203  0.0228  -6.1289   0.0000   0.0000   0.0000  -0.0516
  -9.500  -0.4394   0.01787   0.01235  -0.1311  0.8169  0.0232  -5.9200   0.0000   0.0000   0.0000  -0.0682
  -9.250  -0.4134   0.01729   0.01174  -0.1313  0.8141  0.0236  -5.6887   0.0000   0.0000   0.0000  -0.0877
  -9.000  -0.3869   0.01677   0.01116  -0.1314  0.8110  0.0241  -5.4623   0.0000   0.0000   0.0000  -0.1104
  -8.750  -0.3602   0.01622   0.01052  -0.1316  0.8077  0.0248  -5.2439   0.0000   0.0000   0.0000  -0.1367
  -8.500  -0.3332   0.01568   0.00982  -0.1317  0.8047  0.0254  -5.0346   0.0000   0.0000   0.0000  -0.1674
  -8.250  -0.3068   0.01507   0.00919  -0.1319  0.8021  0.0259  -4.8255   0.0000   0.0000   0.0000  -0.2027
  -8.000  -0.2795   0.01462   0.00874  -0.1321  0.7988  0.0265  -4.6169   0.0000   0.0000   0.0000  -0.2466
  -7.750  -0.2520   0.01418   0.00821  -0.1322  0.7957  0.0272  -4.4175   0.0000   0.0000   0.0000  -0.3002
  -7.500  -0.2245   0.01372   0.00765  -0.1324  0.7929  0.0280  -4.2238   0.0000   0.0000   0.0000  -0.3670
  -7.250  -0.1970   0.01331   0.00724  -0.1326  0.7901  0.0288  -4.0296   0.0000   0.0000   0.0000  -0.4527
  -7.000  -0.1690   0.01295   0.00686  -0.1327  0.7869  0.0297  -3.8430   0.0000   0.0000   0.0000  -0.5684
  -6.750  -0.1410   0.01258   0.00639  -0.1329  0.7839  0.0306  -3.6653   0.0000   0.0000   0.0000  -0.7302
  -6.500  -0.1132   0.01219   0.00600  -0.1331  0.7813  0.0315  -3.4818   0.0000   0.0000   0.0000  -0.9704
  -6.250  -0.0849   0.01191   0.00569  -0.1333  0.7782  0.0328  -3.3094   0.0000   0.0000   0.0000  -1.3772
  -6.000  -0.0568   0.01155   0.00531  -0.1335  0.7750  0.0341  -3.1433   0.0000   0.0000   0.0000  -2.1820
  -5.750  -0.0283   0.01129   0.00503  -0.1337  0.7722  0.0355  -2.9757   0.0000   0.0000   0.0000  -4.6270
  -5.500   0.0001   0.01100   0.00469  -0.1339  0.7696  0.0370  -2.8149   0.0000   0.0000   0.0000  1270.1421
  -5.250   0.0287   0.01076   0.00445  -0.1341  0.7663  0.0388  -2.6516   0.0000   0.0000   0.0000   5.0645
  -5.000   0.0573   0.01049   0.00417  -0.1343  0.7632  0.0408  -2.4996   0.0000   0.0000   0.0000   2.6613
  -4.750   0.0861   0.01032   0.00395  -0.1346  0.7606  0.0430  -2.3502   0.0000   0.0000   0.0000   1.8529
  -4.500   0.1147   0.01007   0.00372  -0.1348  0.7574  0.0455  -2.2038   0.0000   0.0000   0.0000   1.4534
  -4.250   0.1435   0.00985   0.00350  -0.1350  0.7541  0.0485  -2.0599   0.0000   0.0000   0.0000   1.2123
  -4.000   0.1724   0.00966   0.00329  -0.1353  0.7512  0.0521  -1.9180   0.0000   0.0000   0.0000   1.0510
  -3.750   0.2014   0.00949   0.00312  -0.1355  0.7482  0.0566  -1.7835   0.0000   0.0000   0.0000   0.9362
  -3.500   0.2302   0.00929   0.00295  -0.1358  0.7447  0.0628  -1.6537   0.0000   0.0000   0.0000   0.8504
  -3.250   0.2591   0.00911   0.00279  -0.1360  0.7415  0.0720  -1.5262   0.0000   0.0000   0.0000   0.7834
  -3.000   0.2881   0.00893   0.00265  -0.1363  0.7386  0.0868  -1.4009   0.0000   0.0000   0.0000   0.7300
  -2.750   0.3168   0.00872   0.00254  -0.1366  0.7348  0.1093  -1.2800   0.0000   0.0000   0.0000   0.6867
  -2.500   0.3457   0.00854   0.00244  -0.1368  0.7313  0.1368  -1.1646   0.0000   0.0000   0.0000   0.6504
  -2.250   0.3746   0.00839   0.00236  -0.1371  0.7281  0.1664  -1.0512   0.0000   0.0000   0.0000   0.6196
  -2.000   0.4034   0.00824   0.00231  -0.1374  0.7241  0.1956  -0.9431   0.0000   0.0000   0.0000   0.5933
  -1.750   0.4323   0.00809   0.00225  -0.1377  0.7205  0.2269  -0.8399   0.0000   0.0000   0.0000   0.5705
  -1.500   0.4612   0.00797   0.00221  -0.1380  0.7169  0.2629  -0.7884   0.0000   0.0000   0.0000   0.5505
  -1.250   0.4900   0.00781   0.00218  -0.1382  0.7127  0.3034  -0.8067   0.0000   0.0000   0.0000   0.5329
  -1.000   0.5189   0.00766   0.00214  -0.1385  0.7091  0.3544  -0.8253   0.0000   0.0000   0.0000   0.5173
  -0.750   0.5475   0.00748   0.00215  -0.1388  0.7049  0.4162  -0.8446   0.0000   0.0000   0.0000   0.5033
  -0.500   0.5760   0.00729   0.00215  -0.1391  0.7007  0.4881  -0.8648   0.0000   0.0000   0.0000   0.4908
  -0.250   0.6045   0.00714   0.00217  -0.1393  0.6968  0.5599  -0.8851   0.0000   0.0000   0.0000   0.4793
   0.000   0.6328   0.00700   0.00221  -0.1394  0.6921  0.6202  -0.9060   0.0000   0.0000   0.0000   0.4688
   0.250   0.6610   0.00694   0.00224  -0.1394  0.6881  0.6778  -0.9282   0.0000   0.0000   0.0000   0.4590
   0.500   0.6891   0.00687   0.00229  -0.1395  0.6830  0.7188  -0.9506   0.0000   0.0000   0.0000   0.4501
   0.750   0.7170   0.00684   0.00232  -0.1394  0.6786  0.7540  -0.9735   0.0000   0.0000   0.0000   0.4418
   1.000   0.7447   0.00680   0.00237  -0.1393  0.6734  0.7871  -0.9975   0.0000   0.0000   0.0000   0.4341
   1.250   0.7718   0.00677   0.00240  -0.1390  0.6685  0.8201  -1.0220   0.0000   0.0000   0.0000   0.4268
   1.500   0.7983   0.00673   0.00245  -0.1387  0.6629  0.8551  -1.0465   0.0000   0.0000   0.0000   0.4200
   1.750   0.8229   0.00669   0.00248  -0.1378  0.6579  0.8966  -1.0709   0.0000   0.0000   0.0000   0.4134
   2.000   0.8482   0.00660   0.00250  -0.1370  0.6519  0.9592  -1.0972   0.0000   0.0000   0.0000   0.4071
   2.250   0.8813   0.00664   0.00250  -0.1381  0.6461  1.0000  -1.1288   0.0000   0.0000   0.0000   0.4021
   2.500   0.9097   0.00671   0.00254  -0.1383  0.6396  1.0000  -1.1580   0.0000   0.0000   0.0000   0.3971
   2.750   0.9381   0.00679   0.00260  -0.1385  0.6331  1.0000  -1.1887   0.0000   0.0000   0.0000   0.3924
   3.000   0.9661   0.00689   0.00266  -0.1386  0.6265  1.0000  -1.2204   0.0000   0.0000   0.0000   0.3879
   3.250   0.9940   0.00698   0.00273  -0.1387  0.6190  1.0000  -1.2526   0.0000   0.0000   0.0000   0.3836
   3.500   1.0218   0.00708   0.00280  -0.1387  0.6112  1.0000  -1.2868   0.0000   0.0000   0.0000   0.3795
   3.750   1.0493   0.00720   0.00289  -0.1388  0.6030  1.0000  -1.3234   0.0000   0.0000   0.0000   0.3757
   4.000   1.0765   0.00732   0.00299  -0.1387  0.5939  1.0000  -1.3601   0.0000   0.0000   0.0000   0.3720
   4.250   1.1034   0.00746   0.00309  -0.1386  0.5842  1.0000  -1.4003   0.0000   0.0000   0.0000   0.3684
   4.500   1.1301   0.00761   0.00321  -0.1385  0.5741  1.0000  -1.4416   0.0000   0.0000   0.0000   0.3650
   4.750   1.1564   0.00777   0.00334  -0.1383  0.5629  1.0000  -1.4838   0.0000   0.0000   0.0000   0.3617
   5.000   1.1822   0.00796   0.00349  -0.1380  0.5508  1.0000  -1.5297   0.0000   0.0000   0.0000   0.3585
   5.250   1.2075   0.00817   0.00365  -0.1377  0.5383  1.0000  -1.5765   0.0000   0.0000   0.0000   0.3555
   5.500   1.2325   0.00839   0.00383  -0.1373  0.5244  1.0000  -1.6268   0.0000   0.0000   0.0000   0.3525
   5.750   1.2567   0.00865   0.00404  -0.1367  0.5090  1.0000  -1.6810   0.0000   0.0000   0.0000   0.3496
   6.000   1.2804   0.00893   0.00426  -0.1361  0.4932  1.0000  -1.7439   0.0000   0.0000   0.0000   0.3467
   6.250   1.3029   0.00926   0.00452  -0.1353  0.4761  1.0000  -1.8137   0.0000   0.0000   0.0000   0.3439
   6.500   1.3247   0.00962   0.00480  -0.1344  0.4578  1.0000  -1.8877   0.0000   0.0000   0.0000   0.3411
   6.750   1.3457   0.01001   0.00512  -0.1334  0.4387  1.0000  -1.9639   0.0000   0.0000   0.0000   0.3384
   7.000   1.3657   0.01043   0.00546  -0.1322  0.4194  1.0000  -2.0439   0.0000   0.0000   0.0000   0.3357
   7.250   1.3849   0.01088   0.00582  -0.1309  0.4008  1.0000  -2.1245   0.0000   0.0000   0.0000   0.3330
   7.500   1.4024   0.01135   0.00622  -0.1293  0.3822  1.0000  -2.2053   0.0000   0.0000   0.0000   0.3303
   7.750   1.4177   0.01186   0.00665  -0.1272  0.3648  1.0000  -2.2828   0.0000   0.0000   0.0000   0.3275
   8.000   1.4336   0.01237   0.00710  -0.1254  0.3480  1.0000  -2.3642   0.0000   0.0000   0.0000   0.3249
   8.250   1.4490   0.01294   0.00761  -0.1236  0.3318  1.0000  -2.4720   0.0000   0.0000   0.0000   0.3223
   8.750   1.4777   0.01427   0.00881  -0.1199  0.2988  1.0000  -2.6867   0.0000   0.0000   0.0000   0.3174
   9.000   1.4909   0.01503   0.00951  -0.1181  0.2819  1.0000  -2.7932   0.0000   0.0000   0.0000   0.3150
   9.250   1.5032   0.01589   0.01028  -0.1161  0.2650  1.0000  -2.8994   0.0000   0.0000   0.0000   0.3126
   9.500   1.5153   0.01678   0.01111  -0.1143  0.2483  1.0000  -3.0092   0.0000   0.0000   0.0000   0.3103
   9.750   1.5272   0.01771   0.01198  -0.1125  0.2321  1.0000  -3.1195   0.0000   0.0000   0.0000   0.3081
  10.000   1.5380   0.01874   0.01294  -0.1106  0.2163  1.0000  -3.2279   0.0000   0.0000   0.0000   0.3060
  10.250   1.5485   0.01981   0.01394  -0.1088  0.2011  1.0000  -3.3367   0.0000   0.0000   0.0000   0.3038
  10.500   1.5589   0.02091   0.01499  -0.1070  0.1868  1.0000  -3.4462   0.0000   0.0000   0.0000   0.3018
  10.750   1.5677   0.02213   0.01615  -0.1051  0.1725  1.0000  -3.5518   0.0000   0.0000   0.0000   0.2997
  11.000   1.5769   0.02336   0.01732  -0.1033  0.1587  1.0000  -3.6596   0.0000   0.0000   0.0000   0.2977
  11.250   1.5846   0.02470   0.01861  -0.1014  0.1458  1.0000  -3.7637   0.0000   0.0000   0.0000   0.2957
  11.500   1.5928   0.02604   0.01989  -0.0997  0.1335  1.0000  -3.8702   0.0000   0.0000   0.0000   0.2938
  11.750   1.6000   0.02746   0.02127  -0.0979  0.1225  1.0000  -3.9746   0.0000   0.0000   0.0000   0.2919
  12.000   1.6072   0.02890   0.02268  -0.0961  0.1126  1.0000  -4.0794   0.0000   0.0000   0.0000   0.2901
  12.250   1.6143   0.03038   0.02414  -0.0945  0.1033  1.0000  -4.1848   0.0000   0.0000   0.0000   0.2883
  12.500   1.6208   0.03192   0.02566  -0.0928  0.0948  1.0000  -4.2888   0.0000   0.0000   0.0000   0.2865
  12.750   1.6271   0.03352   0.02726  -0.0912  0.0872  1.0000  -4.3956   0.0000   0.0000   0.0000   0.2848
  13.000   1.6332   0.03518   0.02891  -0.0896  0.0804  1.0000  -4.5034   0.0000   0.0000   0.0000   0.2832
  13.250   1.6392   0.03689   0.03062  -0.0882  0.0745  1.0000  -4.6113   0.0000   0.0000   0.0000   0.2816
  13.500   1.6450   0.03865   0.03239  -0.0868  0.0692  1.0000  -4.7195   0.0000   0.0000   0.0000   0.2800
  13.750   1.6505   0.04048   0.03423  -0.0855  0.0645  1.0000  -4.8267   0.0000   0.0000   0.0000   0.2785
  14.000   1.6553   0.04241   0.03617  -0.0842  0.0604  1.0000  -4.9322   0.0000   0.0000   0.0000   0.2770
  14.250   1.6605   0.04435   0.03813  -0.0830  0.0566  1.0000  -5.0395   0.0000   0.0000   0.0000   0.2756
  14.500   1.6658   0.04631   0.04012  -0.0819  0.0533  1.0000  -5.1475   0.0000   0.0000   0.0000   0.2742
  14.750   1.6697   0.04844   0.04229  -0.0808  0.0504  1.0000  -5.2506   0.0000   0.0000   0.0000   0.2729
  15.000   1.6739   0.05058   0.04447  -0.0798  0.0476  1.0000  -5.3552   0.0000   0.0000   0.0000   0.2716
  15.250   1.6779   0.05278   0.04671  -0.0788  0.0451  1.0000  -5.4590   0.0000   0.0000   0.0000   0.2704
  15.750   1.6835   0.05754   0.05157  -0.0771  0.0404  1.0000  -5.6952   0.0000   0.0000   0.0000   0.2681
  16.000   1.6846   0.06017   0.05424  -0.0763  0.0383  1.0000  -5.8116   0.0000   0.0000   0.0000   0.2670
  16.250   1.6859   0.06281   0.05693  -0.0756  0.0361  1.0000  -5.9299   0.0000   0.0000   0.0000   0.2659
  16.500   1.6866   0.06558   0.05976  -0.0750  0.0342  1.0000  -6.0447   0.0000   0.0000   0.0000   0.2650
  16.750   1.6848   0.06866   0.06288  -0.0745  0.0324  1.0000  -6.1479   0.0000   0.0000   0.0000   0.2641
  17.000   1.6850   0.07155   0.06585  -0.0740  0.0305  1.0000  -6.2606   0.0000   0.0000   0.0000   0.2632
  17.250   1.6812   0.07500   0.06934  -0.0737  0.0292  1.0000  -6.3525   0.0000   0.0000   0.0000   0.2625
  17.500   1.6803   0.07812   0.07255  -0.0734  0.0277  1.0000  -6.4585   0.0000   0.0000   0.0000   0.2617
  17.750   1.6750   0.08184   0.07632  -0.0733  0.0267  1.0000  -6.5419   0.0000   0.0000   0.0000   0.2612
  18.000   1.6726   0.08526   0.07983  -0.0733  0.0256  1.0000  -6.6384   0.0000   0.0000   0.0000   0.2606
  18.250   1.6684   0.08895   0.08359  -0.0734  0.0247  1.0000  -6.7261   0.0000   0.0000   0.0000   0.2601
  18.500   1.6603   0.09321   0.08791  -0.0737  0.0240  1.0000  -6.7909   0.0000   0.0000   0.0000   0.2599
  18.750   1.6576   0.09678   0.09159  -0.0741  0.0233  1.0000  -6.8840   0.0000   0.0000   0.0000   0.2595
  19.000   1.6533   0.10063   0.09552  -0.0746  0.0226  1.0000  -6.9708   0.0000   0.0000   0.0000   0.2593
  19.250   1.6464   0.10487   0.09983  -0.0753  0.0220  1.0000  -7.0417   0.0000   0.0000   0.0000   0.2593
  19.500   1.6387   0.10931   0.10434  -0.0763  0.0215  1.0000  -7.1045   0.0000   0.0000   0.0000   0.2594
  19.750   1.6353   0.11314   0.10828  -0.0772  0.0210  1.0000  -7.1922   0.0000   0.0000   0.0000   0.2594
  20.000   1.6306   0.11718   0.11240  -0.0783  0.0205  1.0000  -7.2715   0.0000   0.0000   0.0000   0.2595


