xflr5 v6.61

 Calculated polar for: QX0026  thickness=14.08

 1 1 Reynolds number fixed          Mach number fixed         

 xtrf =   1.000 (top)        1.000 (bottom)
 Mach =   0.000     Re =     0.920 e 6     Ncrit =   9.000

  alpha     CL        CD       CDp       Cm    Top Xtr Bot Xtr   Cpmin    Chinge    XCp    
 ------- -------- --------- --------- -------- ------- ------- -------- --------- ---------
 -10.000  -0.4984   0.01717   0.01187  -0.1302  0.8138  0.0211  -6.5035   0.0000   0.0000   0.0000  -0.0303
  -9.750  -0.4722   0.01665   0.01133  -0.1304  0.8107  0.0214  -6.2579   0.0000   0.0000   0.0000  -0.0455
  -9.500  -0.4455   0.01616   0.01080  -0.1306  0.8074  0.0219  -6.0177   0.0000   0.0000   0.0000  -0.0627
  -9.250  -0.4189   0.01565   0.01019  -0.1307  0.8044  0.0223  -5.7876   0.0000   0.0000   0.0000  -0.0821
  -9.000  -0.3919   0.01517   0.00958  -0.1309  0.8017  0.0228  -5.5629   0.0000   0.0000   0.0000  -0.1044
  -8.750  -0.3654   0.01455   0.00893  -0.1311  0.7985  0.0233  -5.3407   0.0000   0.0000   0.0000  -0.1298
  -8.500  -0.3381   0.01415   0.00851  -0.1313  0.7954  0.0238  -5.1091   0.0000   0.0000   0.0000  -0.1600
  -8.250  -0.3105   0.01378   0.00808  -0.1314  0.7926  0.0244  -4.8934   0.0000   0.0000   0.0000  -0.1959
  -8.000  -0.2828   0.01339   0.00761  -0.1316  0.7898  0.0250  -4.6861   0.0000   0.0000   0.0000  -0.2392
  -7.750  -0.2554   0.01290   0.00707  -0.1318  0.7866  0.0256  -4.4839   0.0000   0.0000   0.0000  -0.2912
  -7.500  -0.2276   0.01254   0.00670  -0.1320  0.7837  0.0263  -4.2771   0.0000   0.0000   0.0000  -0.3570
  -7.250  -0.1994   0.01226   0.00636  -0.1322  0.7811  0.0271  -4.0815   0.0000   0.0000   0.0000  -0.4421
  -7.000  -0.1713   0.01192   0.00596  -0.1324  0.7781  0.0280  -3.8944   0.0000   0.0000   0.0000  -0.5555
  -6.750  -0.1433   0.01155   0.00560  -0.1326  0.7750  0.0288  -3.7042   0.0000   0.0000   0.0000  -0.7128
  -6.500  -0.1149   0.01129   0.00529  -0.1328  0.7722  0.0298  -3.5189   0.0000   0.0000   0.0000  -0.9505
  -6.250  -0.0865   0.01099   0.00494  -0.1330  0.7695  0.0309  -3.3483   0.0000   0.0000   0.0000  -1.3428
  -6.000  -0.0580   0.01073   0.00469  -0.1332  0.7663  0.0321  -3.1729   0.0000   0.0000   0.0000  -2.1265
  -5.750  -0.0293   0.01049   0.00441  -0.1334  0.7634  0.0335  -3.0049   0.0000   0.0000   0.0000  -4.4511
  -5.500  -0.0008   0.01024   0.00414  -0.1337  0.7607  0.0349  -2.8368   0.0000   0.0000   0.0000  -177.0756
  -5.250   0.0280   0.01003   0.00390  -0.1339  0.7577  0.0366  -2.6734   0.0000   0.0000   0.0000   5.1648
  -5.000   0.0568   0.00980   0.00368  -0.1342  0.7546  0.0384  -2.5178   0.0000   0.0000   0.0000   2.6779
  -4.750   0.0856   0.00959   0.00345  -0.1344  0.7517  0.0406  -2.3669   0.0000   0.0000   0.0000   1.8605
  -4.500   0.1146   0.00944   0.00327  -0.1346  0.7489  0.0429  -2.2171   0.0000   0.0000   0.0000   1.4535
  -4.250   0.1434   0.00923   0.00308  -0.1349  0.7456  0.0456  -2.0706   0.0000   0.0000   0.0000   1.2116
  -4.000   0.1724   0.00905   0.00290  -0.1351  0.7424  0.0490  -1.9268   0.0000   0.0000   0.0000   1.0503
  -3.750   0.2014   0.00890   0.00273  -0.1354  0.7395  0.0531  -1.7908   0.0000   0.0000   0.0000   0.9352
  -3.500   0.2304   0.00873   0.00259  -0.1356  0.7361  0.0587  -1.6592   0.0000   0.0000   0.0000   0.8492
  -3.250   0.2594   0.00856   0.00245  -0.1359  0.7327  0.0670  -1.5303   0.0000   0.0000   0.0000   0.7823
  -3.000   0.2883   0.00840   0.00231  -0.1362  0.7296  0.0800  -1.4038   0.0000   0.0000   0.0000   0.7290
  -2.750   0.3173   0.00822   0.00221  -0.1364  0.7261  0.0997  -1.2813   0.0000   0.0000   0.0000   0.6856
  -2.500   0.3462   0.00804   0.00212  -0.1367  0.7223  0.1246  -1.1654   0.0000   0.0000   0.0000   0.6494
  -2.250   0.3752   0.00790   0.00205  -0.1370  0.7191  0.1516  -1.0517   0.0000   0.0000   0.0000   0.6187
  -2.000   0.4041   0.00776   0.00200  -0.1373  0.7152  0.1796  -0.9427   0.0000   0.0000   0.0000   0.5925
  -1.750   0.4331   0.00763   0.00194  -0.1376  0.7114  0.2076  -0.8393   0.0000   0.0000   0.0000   0.5697
  -1.500   0.4620   0.00752   0.00190  -0.1379  0.7079  0.2404  -0.7894   0.0000   0.0000   0.0000   0.5497
  -1.250   0.4910   0.00739   0.00188  -0.1382  0.7037  0.2756  -0.8078   0.0000   0.0000   0.0000   0.5322
  -1.000   0.5198   0.00725   0.00185  -0.1385  0.6998  0.3193  -0.8264   0.0000   0.0000   0.0000   0.5166
  -0.750   0.5487   0.00710   0.00184  -0.1388  0.6957  0.3715  -0.8458   0.0000   0.0000   0.0000   0.5026
  -0.500   0.5774   0.00693   0.00184  -0.1391  0.6913  0.4356  -0.8660   0.0000   0.0000   0.0000   0.4901
  -0.250   0.6060   0.00677   0.00186  -0.1393  0.6874  0.5083  -0.8864   0.0000   0.0000   0.0000   0.4788
   0.000   0.6346   0.00663   0.00189  -0.1395  0.6826  0.5724  -0.9075   0.0000   0.0000   0.0000   0.4683
   0.250   0.6629   0.00653   0.00192  -0.1397  0.6783  0.6303  -0.9297   0.0000   0.0000   0.0000   0.4587
   0.500   0.6914   0.00646   0.00198  -0.1398  0.6733  0.6824  -0.9523   0.0000   0.0000   0.0000   0.4499
   0.750   0.7196   0.00643   0.00201  -0.1398  0.6687  0.7205  -0.9754   0.0000   0.0000   0.0000   0.4417
   1.000   0.7478   0.00639   0.00206  -0.1399  0.6634  0.7533  -0.9996   0.0000   0.0000   0.0000   0.4340
   1.250   0.7756   0.00638   0.00210  -0.1398  0.6583  0.7847  -1.0246   0.0000   0.0000   0.0000   0.4269
   1.500   0.8031   0.00635   0.00216  -0.1397  0.6526  0.8163  -1.0498   0.0000   0.0000   0.0000   0.4202
   1.750   0.8299   0.00634   0.00220  -0.1394  0.6474  0.8499  -1.0756   0.0000   0.0000   0.0000   0.4139
   2.000   0.8553   0.00629   0.00226  -0.1387  0.6411  0.8897  -1.1019   0.0000   0.0000   0.0000   0.4079
   2.250   0.8787   0.00623   0.00229  -0.1375  0.6353  0.9499  -1.1276   0.0000   0.0000   0.0000   0.4019
   2.500   0.9118   0.00626   0.00230  -0.1387  0.6287  1.0000  -1.1598   0.0000   0.0000   0.0000   0.3971
   2.750   0.9403   0.00634   0.00235  -0.1389  0.6218  1.0000  -1.1906   0.0000   0.0000   0.0000   0.3924
   3.000   0.9684   0.00643   0.00242  -0.1390  0.6147  1.0000  -1.2225   0.0000   0.0000   0.0000   0.3879
   3.250   0.9962   0.00654   0.00249  -0.1391  0.6072  1.0000  -1.2546   0.0000   0.0000   0.0000   0.3837
   3.500   1.0241   0.00665   0.00257  -0.1392  0.5988  1.0000  -1.2889   0.0000   0.0000   0.0000   0.3797
   3.750   1.0516   0.00677   0.00265  -0.1392  0.5896  1.0000  -1.3256   0.0000   0.0000   0.0000   0.3758
   4.000   1.0788   0.00690   0.00275  -0.1392  0.5799  1.0000  -1.3624   0.0000   0.0000   0.0000   0.3721
   4.250   1.1058   0.00705   0.00286  -0.1391  0.5697  1.0000  -1.4028   0.0000   0.0000   0.0000   0.3686
   4.500   1.1324   0.00721   0.00299  -0.1390  0.5587  1.0000  -1.4441   0.0000   0.0000   0.0000   0.3652
   4.750   1.1586   0.00739   0.00312  -0.1388  0.5466  1.0000  -1.4862   0.0000   0.0000   0.0000   0.3619
   5.000   1.1846   0.00758   0.00327  -0.1386  0.5338  1.0000  -1.5325   0.0000   0.0000   0.0000   0.3587
   5.250   1.2100   0.00780   0.00344  -0.1382  0.5198  1.0000  -1.5794   0.0000   0.0000   0.0000   0.3557
   5.500   1.2347   0.00805   0.00363  -0.1378  0.5046  1.0000  -1.6297   0.0000   0.0000   0.0000   0.3527
   5.750   1.2589   0.00833   0.00384  -0.1373  0.4883  1.0000  -1.6843   0.0000   0.0000   0.0000   0.3498
   6.000   1.2825   0.00862   0.00407  -0.1367  0.4713  1.0000  -1.7472   0.0000   0.0000   0.0000   0.3469
   6.250   1.3052   0.00897   0.00433  -0.1359  0.4531  1.0000  -1.8178   0.0000   0.0000   0.0000   0.3441
   6.500   1.3270   0.00934   0.00462  -0.1350  0.4342  1.0000  -1.8919   0.0000   0.0000   0.0000   0.3414
   6.750   1.3480   0.00974   0.00494  -0.1340  0.4148  1.0000  -1.9685   0.0000   0.0000   0.0000   0.3387
   7.000   1.3683   0.01017   0.00528  -0.1328  0.3959  1.0000  -2.0496   0.0000   0.0000   0.0000   0.3360
   7.250   1.3880   0.01060   0.00563  -0.1316  0.3768  1.0000  -2.1317   0.0000   0.0000   0.0000   0.3334
   7.500   1.4066   0.01105   0.00600  -0.1302  0.3584  1.0000  -2.2145   0.0000   0.0000   0.0000   0.3307
   7.750   1.4230   0.01151   0.00639  -0.1284  0.3421  1.0000  -2.2944   0.0000   0.0000   0.0000   0.3280
   8.000   1.4389   0.01203   0.00684  -0.1265  0.3259  1.0000  -2.3799   0.0000   0.0000   0.0000   0.3253
   8.250   1.4549   0.01257   0.00732  -0.1248  0.3092  1.0000  -2.4894   0.0000   0.0000   0.0000   0.3228
   8.500   1.4695   0.01319   0.00787  -0.1229  0.2926  1.0000  -2.5974   0.0000   0.0000   0.0000   0.3202
   8.750   1.4832   0.01390   0.00850  -0.1210  0.2753  1.0000  -2.7040   0.0000   0.0000   0.0000   0.3178
   9.000   1.4966   0.01465   0.00917  -0.1191  0.2580  1.0000  -2.8115   0.0000   0.0000   0.0000   0.3154
   9.250   1.5100   0.01543   0.00989  -0.1173  0.2418  1.0000  -2.9226   0.0000   0.0000   0.0000   0.3131
   9.500   1.5223   0.01630   0.01069  -0.1155  0.2260  1.0000  -3.0334   0.0000   0.0000   0.0000   0.3108
   9.750   1.5342   0.01723   0.01155  -0.1137  0.2102  1.0000  -3.1441   0.0000   0.0000   0.0000   0.3086
  10.000   1.5461   0.01817   0.01243  -0.1119  0.1956  1.0000  -3.2564   0.0000   0.0000   0.0000   0.3064
  10.250   1.5567   0.01923   0.01342  -0.1100  0.1814  1.0000  -3.3657   0.0000   0.0000   0.0000   0.3043
  10.500   1.5674   0.02030   0.01443  -0.1082  0.1670  1.0000  -3.4765   0.0000   0.0000   0.0000   0.3022
  10.750   1.5767   0.02148   0.01555  -0.1064  0.1536  1.0000  -3.5843   0.0000   0.0000   0.0000   0.3002
  11.000   1.5861   0.02267   0.01669  -0.1046  0.1406  1.0000  -3.6934   0.0000   0.0000   0.0000   0.2982
  11.250   1.5944   0.02396   0.01792  -0.1027  0.1287  1.0000  -3.8001   0.0000   0.0000   0.0000   0.2962
  11.500   1.6036   0.02521   0.01914  -0.1010  0.1180  1.0000  -3.9102   0.0000   0.0000   0.0000   0.2943
  11.750   1.6118   0.02655   0.02044  -0.0993  0.1081  1.0000  -4.0183   0.0000   0.0000   0.0000   0.2924
  12.000   1.6193   0.02796   0.02182  -0.0975  0.0992  1.0000  -4.1250   0.0000   0.0000   0.0000   0.2905
  12.250   1.6267   0.02939   0.02323  -0.0958  0.0911  1.0000  -4.2321   0.0000   0.0000   0.0000   0.2887
  12.500   1.6341   0.03084   0.02467  -0.0942  0.0838  1.0000  -4.3407   0.0000   0.0000   0.0000   0.2870
  12.750   1.6412   0.03236   0.02618  -0.0926  0.0773  1.0000  -4.4519   0.0000   0.0000   0.0000   0.2853
  13.000   1.6480   0.03394   0.02775  -0.0911  0.0714  1.0000  -4.5632   0.0000   0.0000   0.0000   0.2836
  13.250   1.6544   0.03558   0.02939  -0.0896  0.0662  1.0000  -4.6738   0.0000   0.0000   0.0000   0.2820
  13.500   1.6614   0.03721   0.03103  -0.0883  0.0616  1.0000  -4.7872   0.0000   0.0000   0.0000   0.2804
  13.750   1.6682   0.03890   0.03274  -0.0870  0.0576  1.0000  -4.9006   0.0000   0.0000   0.0000   0.2789
  14.000   1.6744   0.04066   0.03453  -0.0857  0.0541  1.0000  -5.0124   0.0000   0.0000   0.0000   0.2774
  14.250   1.6796   0.04257   0.03645  -0.0844  0.0509  1.0000  -5.1209   0.0000   0.0000   0.0000   0.2759
  14.500   1.6859   0.04439   0.03831  -0.0833  0.0480  1.0000  -5.2345   0.0000   0.0000   0.0000   0.2745
  14.750   1.6913   0.04634   0.04030  -0.0822  0.0454  1.0000  -5.3446   0.0000   0.0000   0.0000   0.2732
  15.000   1.6953   0.04846   0.04244  -0.0812  0.0429  1.0000  -5.4500   0.0000   0.0000   0.0000   0.2719
  15.250   1.7006   0.05049   0.04452  -0.0802  0.0405  1.0000  -5.5610   0.0000   0.0000   0.0000   0.2706
  15.500   1.7038   0.05276   0.04682  -0.0792  0.0383  1.0000  -5.6884   0.0000   0.0000   0.0000   0.2694
  15.750   1.7071   0.05506   0.04917  -0.0784  0.0362  1.0000  -5.8171   0.0000   0.0000   0.0000   0.2682
  16.000   1.7099   0.05745   0.05161  -0.0775  0.0341  1.0000  -5.9444   0.0000   0.0000   0.0000   0.2670
  16.250   1.7104   0.06013   0.05432  -0.0767  0.0321  1.0000  -6.0605   0.0000   0.0000   0.0000   0.2660
  16.500   1.7125   0.06267   0.05692  -0.0761  0.0302  1.0000  -6.1851   0.0000   0.0000   0.0000   0.2649
  16.750   1.7126   0.06549   0.05978  -0.0754  0.0285  1.0000  -6.2997   0.0000   0.0000   0.0000   0.2639
  17.000   1.7117   0.06845   0.06280  -0.0749  0.0269  1.0000  -6.4093   0.0000   0.0000   0.0000   0.2630
  17.250   1.7110   0.07144   0.06585  -0.0744  0.0256  1.0000  -6.5194   0.0000   0.0000   0.0000   0.2621
  17.500   1.7087   0.07468   0.06915  -0.0741  0.0244  1.0000  -6.6216   0.0000   0.0000   0.0000   0.2614
  17.750   1.7061   0.07799   0.07254  -0.0738  0.0235  1.0000  -6.7214   0.0000   0.0000   0.0000   0.2607
  18.000   1.7037   0.08131   0.07593  -0.0736  0.0226  1.0000  -6.8230   0.0000   0.0000   0.0000   0.2600
  18.250   1.6985   0.08505   0.07973  -0.0736  0.0218  1.0000  -6.9090   0.0000   0.0000   0.0000   0.2595
  18.500   1.6958   0.08852   0.08328  -0.0737  0.0211  1.0000  -7.0079   0.0000   0.0000   0.0000   0.2589
  18.750   1.6924   0.09211   0.08695  -0.0739  0.0205  1.0000  -7.1062   0.0000   0.0000   0.0000   0.2585
  19.000   1.6869   0.09603   0.09094  -0.0743  0.0199  1.0000  -7.1916   0.0000   0.0000   0.0000   0.2582
  19.250   1.6796   0.10027   0.09525  -0.0748  0.0195  1.0000  -7.2639   0.0000   0.0000   0.0000   0.2581
  19.500   1.6762   0.10396   0.09904  -0.0754  0.0190  1.0000  -7.3588   0.0000   0.0000   0.0000   0.2578
  19.750   1.6716   0.10789   0.10306  -0.0762  0.0186  1.0000  -7.4445   0.0000   0.0000   0.0000   0.2577
  20.000   1.6660   0.11200   0.10725  -0.0771  0.0182  1.0000  -7.5229   0.0000   0.0000   0.0000   0.2578


