xflr5 v6.61

 Calculated polar for: QX0026 thickness=13.80

 1 1 Reynolds number fixed          Mach number fixed         

 xtrf =   1.000 (top)        1.000 (bottom)
 Mach =   0.000     Re =     0.500 e 6     Ncrit =   9.000

  alpha     CL        CD       CDp       Cm    Top Xtr Bot Xtr   Cpmin    Chinge    XCp    
 ------- -------- --------- --------- -------- ------- ------- -------- --------- ---------
  -5.000   0.0301   0.01216   0.00513  -0.1281  0.7520  0.0465  -2.4464   0.0000   0.0000   0.0000   4.6304
  -4.500   0.0865   0.01168   0.00460  -0.1283  0.7442  0.0512  -2.1700   0.0000   0.0000   0.0000   1.7701
  -4.000   0.1432   0.01129   0.00418  -0.1286  0.7364  0.0562  -1.9032   0.0000   0.0000   0.0000   1.1667
  -3.500   0.2001   0.01091   0.00376  -0.1288  0.7289  0.0601  -1.6439   0.0000   0.0000   0.0000   0.9053
  -3.000   0.2574   0.01058   0.00338  -0.1291  0.7220  0.0642  -1.4124   0.0000   0.0000   0.0000   0.7590
  -2.500   0.3146   0.01027   0.00305  -0.1294  0.7137  0.0694  -1.1893   0.0000   0.0000   0.0000   0.6660
  -1.500   0.4287   0.00950   0.00253  -0.1301  0.6975  0.1456  -0.8082   0.0000   0.0000   0.0000   0.5549
  -1.000   0.4860   0.00930   0.00240  -0.1305  0.6902  0.2025  -0.8123   0.0000   0.0000   0.0000   0.5187
  -0.500   0.5427   0.00917   0.00237  -0.1307  0.6803  0.2594  -0.8511   0.0000   0.0000   0.0000   0.4902
   0.000   0.5991   0.00905   0.00239  -0.1309  0.6688  0.3179  -0.8935   0.0000   0.0000   0.0000   0.4670
   0.500   0.6555   0.00887   0.00242  -0.1312  0.6566  0.3897  -0.9460   0.0000   0.0000   0.0000   0.4478
   1.000   0.7116   0.00863   0.00247  -0.1314  0.6423  0.4848  -1.0053   0.0000   0.0000   0.0000   0.4317
   1.500   0.7665   0.00844   0.00251  -0.1313  0.6277  0.6014  -1.0645   0.0000   0.0000   0.0000   0.4176
   2.000   0.8203   0.00836   0.00268  -0.1309  0.6142  0.7187  -1.1234   0.0000   0.0000   0.0000   0.4053
   2.500   0.8658   0.00800   0.00288  -0.1282  0.6003  0.9353  -1.1774   0.0000   0.0000   0.0000   0.3932
   3.000   0.9261   0.00813   0.00299  -0.1293  0.5810  1.0001  -1.2413   0.0000   0.0000   0.0000   0.3841
   3.500   0.9789   0.00841   0.00314  -0.1288  0.5616  1.0001  -1.3006   0.0000   0.0000   0.0000   0.3754
   4.000   1.0313   0.00877   0.00340  -0.1283  0.5425  1.0001  -1.3603   0.0000   0.0000   0.0000   0.3676
   4.500   1.0831   0.00912   0.00370  -0.1278  0.5128  1.0001  -1.4959   0.0000   0.0000   0.0000   0.3605
   5.000   1.1304   0.00969   0.00410  -0.1264  0.4864  1.0001  -1.6307   0.0000   0.0000   0.0000   0.3537
   5.500   1.1788   0.01022   0.00455  -0.1253  0.4546  1.0001  -1.7691   0.0000   0.0000   0.0000   0.3476
   6.000   1.2225   0.01094   0.00512  -0.1235  0.4244  1.0001  -1.9033   0.0000   0.0000   0.0000   0.3416
   6.500   1.2666   0.01162   0.00572  -0.1217  0.3960  1.0001  -2.0397   0.0000   0.0000   0.0000   0.3360
   7.000   1.3053   0.01249   0.00646  -0.1191  0.3635  1.0001  -2.1701   0.0000   0.0000   0.0000   0.3304
   7.500   1.3395   0.01340   0.00729  -0.1157  0.3342  1.0001  -2.2949   0.0000   0.0000   0.0000   0.3248
   8.000   1.3684   0.01460   0.00835  -0.1117  0.2987  1.0001  -2.4122   0.0000   0.0000   0.0000   0.3193
   8.500   1.3949   0.01605   0.00967  -0.1078  0.2657  1.0001  -2.5257   0.0000   0.0000   0.0000   0.3141
   9.000   1.4196   0.01776   0.01127  -0.1040  0.2305  1.0001  -2.7101   0.0000   0.0000   0.0000   0.3093
   9.500   1.4390   0.01995   0.01329  -0.1000  0.1972  1.0001  -2.8989   0.0000   0.0000   0.0000   0.3047
  10.000   1.4624   0.02203   0.01531  -0.0969  0.1697  1.0001  -3.1050   0.0000   0.0000   0.0000   0.3005
  10.500   1.4764   0.02486   0.01799  -0.0930  0.1376  1.0001  -3.2976   0.0000   0.0000   0.0000   0.2964
  11.000   1.4948   0.02749   0.02060  -0.0898  0.1140  1.0001  -3.5065   0.0000   0.0000   0.0000   0.2926
  12.000   1.5163   0.03419   0.02719  -0.0830  0.0786  1.0001  -3.9089   0.0000   0.0000   0.0000   0.2853
  12.500   1.5318   0.03732   0.03041  -0.0804  0.0701  1.0001  -4.1318   0.0000   0.0000   0.0000   0.2821
  13.000   1.5472   0.04059   0.03375  -0.0780  0.0620  1.0001  -4.3581   0.0000   0.0000   0.0000   0.2790
  13.500   1.5596   0.04428   0.03751  -0.0758  0.0562  1.0001  -4.5760   0.0000   0.0000   0.0000   0.2762
  14.000   1.5684   0.04847   0.04178  -0.0737  0.0516  1.0001  -4.7953   0.0000   0.0000   0.0000   0.2735
  14.500   1.5724   0.05331   0.04672  -0.0717  0.0478  1.0001  -5.0106   0.0000   0.0000   0.0000   0.2710
  15.000   1.5734   0.05872   0.05225  -0.0701  0.0446  1.0001  -5.2132   0.0000   0.0000   0.0000   0.2689
  15.500   1.5730   0.06445   0.05814  -0.0688  0.0418  1.0001  -5.4090   0.0000   0.0000   0.0000   0.2669
  16.000   1.5624   0.07161   0.06542  -0.0678  0.0394  1.0001  -5.5561   0.0000   0.0000   0.0000   0.2654
  16.500   1.5596   0.07808   0.07208  -0.0673  0.0373  1.0001  -5.7380   0.0000   0.0000   0.0000   0.2640
  17.000   1.5445   0.08615   0.08024  -0.0671  0.0355  1.0001  -5.8553   0.0000   0.0000   0.0000   0.2632
  17.500   1.5510   0.09185   0.08622  -0.0675  0.0330  1.0001  -6.0787   0.0000   0.0000   0.0000   0.2620
  18.000   1.5505   0.09849   0.09303  -0.0682  0.0309  1.0001  -6.2694   0.0000   0.0000   0.0000   0.2612
  18.500   1.5488   0.10534   0.10003  -0.0692  0.0296  1.0001  -6.4569   0.0000   0.0000   0.0000   0.2607
  19.000   1.5410   0.11317   0.10793  -0.0708  0.0284  1.0001  -6.6083   0.0000   0.0000   0.0000   0.2607
  19.500   1.5313   0.12124   0.11616  -0.0727  0.0270  1.0001  -6.7432   0.0000   0.0000   0.0000   0.2609
  20.000   1.5251   0.12909   0.12424  -0.0750  0.0256  1.0001  -6.8940   0.0000   0.0000   0.0000   0.2614


