xflr5 v6.61

 Calculated polar for: QX0026  thickness=14.08

 1 1 Reynolds number fixed          Mach number fixed         

 xtrf =   1.000 (top)        1.000 (bottom)
 Mach =   0.000     Re =     0.280 e 6     Ncrit =   9.000

  alpha     CL        CD       CDp       Cm    Top Xtr Bot Xtr   Cpmin    Chinge    XCp    
 ------- -------- --------- --------- -------- ------- ------- -------- --------- ---------
  -8.250  -0.2400   0.03763   0.03322  -0.1361  0.8638  0.0426  -3.5633   0.0000   0.0000   0.0000  -0.3441
  -8.000  -0.2314   0.03270   0.02778  -0.1377  0.8592  0.0417  -3.6299   0.0000   0.0000   0.0000  -0.3725
  -7.750  -0.2171   0.02868   0.02313  -0.1384  0.8560  0.0418  -3.6527   0.0000   0.0000   0.0000  -0.4162
  -7.500  -0.1982   0.02598   0.01988  -0.1386  0.8511  0.0425  -3.6182   0.0000   0.0000   0.0000  -0.4804
  -7.250  -0.1758   0.02389   0.01720  -0.1386  0.8477  0.0432  -3.5618   0.0000   0.0000   0.0000  -0.5719
  -7.000  -0.1500   0.02288   0.01624  -0.1386  0.8452  0.0442  -3.3941   0.0000   0.0000   0.0000  -0.7124
  -6.750  -0.1250   0.02202   0.01526  -0.1386  0.8406  0.0456  -3.2527   0.0000   0.0000   0.0000  -0.9025
  -6.500  -0.0992   0.02089   0.01374  -0.1385  0.8373  0.0470  -3.1538   0.0000   0.0000   0.0000  -1.1997
  -6.250  -0.0724   0.01997   0.01281  -0.1385  0.8348  0.0483  -3.0064   0.0000   0.0000   0.0000  -1.7313
  -6.000  -0.0464   0.01937   0.01214  -0.1385  0.8306  0.0502  -2.8682   0.0000   0.0000   0.0000  -2.8361
  -5.750  -0.0198   0.01861   0.01126  -0.1384  0.8271  0.0521  -2.7436   0.0000   0.0000   0.0000  -6.9823
  -5.500   0.0078   0.01802   0.01062  -0.1384  0.8245  0.0542  -2.6068   0.0000   0.0000   0.0000  18.5488
  -5.250   0.0343   0.01746   0.01001  -0.1383  0.8208  0.0567  -2.4806   0.0000   0.0000   0.0000   4.4011
  -5.000   0.0612   0.01701   0.00955  -0.1382  0.8170  0.0596  -2.3460   0.0000   0.0000   0.0000   2.5723
  -4.750   0.0888   0.01647   0.00900  -0.1382  0.8143  0.0628  -2.2191   0.0000   0.0000   0.0000   1.8478
  -4.500   0.1162   0.01608   0.00856  -0.1382  0.8111  0.0667  -2.0979   0.0000   0.0000   0.0000   1.4693
  -4.250   0.1429   0.01573   0.00825  -0.1382  0.8069  0.0711  -1.9733   0.0000   0.0000   0.0000   1.2401
  -4.000   0.1708   0.01530   0.00784  -0.1382  0.8040  0.0765  -1.8481   0.0000   0.0000   0.0000   1.0774
  -3.750   0.1989   0.01493   0.00747  -0.1383  0.8013  0.0836  -1.7281   0.0000   0.0000   0.0000   0.9598
  -3.500   0.2255   0.01468   0.00725  -0.1383  0.7968  0.0931  -1.6172   0.0000   0.0000   0.0000   0.8750
  -3.250   0.2538   0.01428   0.00693  -0.1384  0.7937  0.1074  -1.5021   0.0000   0.0000   0.0000   0.8052
  -3.000   0.2828   0.01388   0.00662  -0.1387  0.7913  0.1321  -1.3865   0.0000   0.0000   0.0000   0.7485
  -2.750   0.3090   0.01366   0.00658  -0.1387  0.7863  0.1685  -1.2795   0.0000   0.0000   0.0000   0.7055
  -2.500   0.3375   0.01337   0.00641  -0.1389  0.7831  0.2114  -1.1687   0.0000   0.0000   0.0000   0.6670
  -2.250   0.3668   0.01310   0.00625  -0.1393  0.7807  0.2569  -1.0570   0.0000   0.0000   0.0000   0.6340
  -2.000   0.3930   0.01297   0.00630  -0.1392  0.7756  0.3044  -0.9568   0.0000   0.0000   0.0000   0.6078
  -1.750   0.4216   0.01269   0.00619  -0.1395  0.7723  0.3647  -0.8553   0.0000   0.0000   0.0000   0.5834
  -1.500   0.4498   0.01243   0.00614  -0.1396  0.7691  0.4383  -0.7726   0.0000   0.0000   0.0000   0.5624
  -1.250   0.4760   0.01223   0.00623  -0.1394  0.7643  0.5232  -0.7894   0.0000   0.0000   0.0000   0.5443
  -1.000   0.5038   0.01196   0.00619  -0.1392  0.7612  0.6066  -0.8082   0.0000   0.0000   0.0000   0.5271
  -0.750   0.5294   0.01187   0.00630  -0.1386  0.7569  0.6796  -0.8262   0.0000   0.0000   0.0000   0.5121
  -0.250   0.5820   0.01160   0.00623  -0.1372  0.7498  0.7848  -0.8650   0.0000   0.0000   0.0000   0.4851
   0.000   0.6043   0.01159   0.00635  -0.1358  0.7443  0.8288  -0.8826   0.0000   0.0000   0.0000   0.4736
   0.250   0.6277   0.01144   0.00625  -0.1343  0.7407  0.8739  -0.9022   0.0000   0.0000   0.0000   0.4624
   0.500   0.6508   0.01134   0.00621  -0.1328  0.7362  0.9280  -0.9218   0.0000   0.0000   0.0000   0.4522
   0.750   0.6911   0.01121   0.00605  -0.1353  0.7317  1.0000  -0.9515   0.0000   0.0000   0.0000   0.4434
   1.000   0.7219   0.01120   0.00592  -0.1359  0.7282  1.0000  -0.9773   0.0000   0.0000   0.0000   0.4356
   1.250   0.7494   0.01129   0.00598  -0.1360  0.7224  1.0000  -1.0014   0.0000   0.0000   0.0000   0.4285
   1.500   0.7803   0.01125   0.00584  -0.1366  0.7188  1.0000  -1.0287   0.0000   0.0000   0.0000   0.4216
   1.750   0.8071   0.01135   0.00592  -0.1365  0.7126  1.0000  -1.0539   0.0000   0.0000   0.0000   0.4154
   2.000   0.8376   0.01132   0.00580  -0.1370  0.7087  1.0000  -1.0833   0.0000   0.0000   0.0000   0.4094
   2.250   0.8643   0.01141   0.00589  -0.1368  0.7023  1.0000  -1.1104   0.0000   0.0000   0.0000   0.4039
   2.500   0.8948   0.01138   0.00577  -0.1372  0.6981  1.0000  -1.1412   0.0000   0.0000   0.0000   0.3986
   2.750   0.9211   0.01147   0.00587  -0.1370  0.6913  1.0000  -1.1701   0.0000   0.0000   0.0000   0.3937
   3.000   0.9496   0.01149   0.00586  -0.1371  0.6858  1.0000  -1.2019   0.0000   0.0000   0.0000   0.3890
   3.250   0.9776   0.01152   0.00586  -0.1371  0.6797  1.0000  -1.2341   0.0000   0.0000   0.0000   0.3846
   3.500   1.0046   0.01159   0.00592  -0.1370  0.6729  1.0000  -1.2672   0.0000   0.0000   0.0000   0.3803
   3.750   1.0334   0.01160   0.00589  -0.1371  0.6670  1.0000  -1.3045   0.0000   0.0000   0.0000   0.3763
   4.000   1.0600   0.01167   0.00595  -0.1369  0.6596  1.0000  -1.3406   0.0000   0.0000   0.0000   0.3724
   4.250   1.0864   0.01175   0.00604  -0.1367  0.6519  1.0000  -1.3793   0.0000   0.0000   0.0000   0.3687
   4.500   1.1133   0.01181   0.00609  -0.1365  0.6443  1.0000  -1.4203   0.0000   0.0000   0.0000   0.3652
   4.750   1.1404   0.01187   0.00613  -0.1363  0.6364  1.0000  -1.4631   0.0000   0.0000   0.0000   0.3618
   5.000   1.1670   0.01194   0.00618  -0.1361  0.6278  1.0000  -1.5083   0.0000   0.0000   0.0000   0.3585
   5.250   1.1923   0.01205   0.00629  -0.1356  0.6180  1.0000  -1.5550   0.0000   0.0000   0.0000   0.3553
   5.500   1.2175   0.01217   0.00640  -0.1351  0.6080  1.0000  -1.6039   0.0000   0.0000   0.0000   0.3522
   5.750   1.2422   0.01231   0.00654  -0.1346  0.5973  1.0000  -1.6580   0.0000   0.0000   0.0000   0.3492
   6.000   1.2659   0.01248   0.00672  -0.1339  0.5854  1.0000  -1.7181   0.0000   0.0000   0.0000   0.3463
   6.250   1.2892   0.01266   0.00691  -0.1331  0.5729  1.0000  -1.7851   0.0000   0.0000   0.0000   0.3434
   6.500   1.3123   0.01288   0.00710  -0.1323  0.5601  1.0000  -1.8597   0.0000   0.0000   0.0000   0.3406
   6.750   1.3345   0.01312   0.00732  -0.1314  0.5465  1.0000  -1.9362   0.0000   0.0000   0.0000   0.3378
   7.000   1.3553   0.01341   0.00760  -0.1302  0.5313  1.0000  -2.0137   0.0000   0.0000   0.0000   0.3351
   7.250   1.3753   0.01374   0.00789  -0.1289  0.5161  1.0000  -2.0942   0.0000   0.0000   0.0000   0.3323
   7.500   1.3937   0.01412   0.00823  -0.1273  0.4993  1.0000  -2.1735   0.0000   0.0000   0.0000   0.3296
   7.750   1.4105   0.01455   0.00863  -0.1255  0.4819  1.0000  -2.2532   0.0000   0.0000   0.0000   0.3269
   8.000   1.4255   0.01505   0.00906  -0.1235  0.4643  1.0000  -2.3307   0.0000   0.0000   0.0000   0.3241
   8.250   1.4372   0.01560   0.00955  -0.1209  0.4470  1.0000  -2.4180   0.0000   0.0000   0.0000   0.3211
   8.500   1.4487   0.01622   0.01013  -0.1183  0.4294  1.0000  -2.5164   0.0000   0.0000   0.0000   0.3183
   8.750   1.4594   0.01693   0.01080  -0.1158  0.4122  1.0000  -2.6141   0.0000   0.0000   0.0000   0.3156
   9.000   1.4692   0.01774   0.01155  -0.1134  0.3954  1.0000  -2.7104   0.0000   0.0000   0.0000   0.3130
   9.250   1.4790   0.01860   0.01238  -0.1110  0.3784  1.0000  -2.8075   0.0000   0.0000   0.0000   0.3104
   9.500   1.4884   0.01954   0.01328  -0.1087  0.3621  1.0000  -2.9044   0.0000   0.0000   0.0000   0.3080
   9.750   1.4968   0.02059   0.01428  -0.1064  0.3461  1.0000  -2.9995   0.0000   0.0000   0.0000   0.3056
  10.000   1.5056   0.02166   0.01533  -0.1043  0.3298  1.0000  -3.0987   0.0000   0.0000   0.0000   0.3033
  10.250   1.5130   0.02286   0.01649  -0.1021  0.3142  1.0000  -3.1960   0.0000   0.0000   0.0000   0.3011
  10.500   1.5204   0.02411   0.01771  -0.1001  0.2983  1.0000  -3.2941   0.0000   0.0000   0.0000   0.2990
  10.750   1.5271   0.02545   0.01902  -0.0980  0.2829  1.0000  -3.3907   0.0000   0.0000   0.0000   0.2968
  11.000   1.5329   0.02689   0.02042  -0.0959  0.2675  1.0000  -3.4851   0.0000   0.0000   0.0000   0.2948
  11.250   1.5386   0.02838   0.02189  -0.0940  0.2520  1.0000  -3.5800   0.0000   0.0000   0.0000   0.2928
  11.500   1.5424   0.03004   0.02350  -0.0919  0.2369  1.0000  -3.6697   0.0000   0.0000   0.0000   0.2908
  11.750   1.5468   0.03171   0.02515  -0.0901  0.2213  1.0000  -3.7614   0.0000   0.0000   0.0000   0.2890
  12.000   1.5497   0.03352   0.02692  -0.0881  0.2063  1.0000  -3.8492   0.0000   0.0000   0.0000   0.2871
  12.250   1.5517   0.03546   0.02882  -0.0863  0.1916  1.0000  -3.9340   0.0000   0.0000   0.0000   0.2853
  12.500   1.5541   0.03744   0.03076  -0.0845  0.1769  1.0000  -4.0202   0.0000   0.0000   0.0000   0.2836
  13.000   1.5569   0.04175   0.03501  -0.0813  0.1506  1.0000  -4.1863   0.0000   0.0000   0.0000   0.2804
  13.250   1.5576   0.04407   0.03731  -0.0798  0.1391  1.0000  -4.2689   0.0000   0.0000   0.0000   0.2789
  13.500   1.5581   0.04647   0.03969  -0.0784  0.1288  1.0000  -4.3515   0.0000   0.0000   0.0000   0.2775
  13.750   1.5592   0.04888   0.04210  -0.0771  0.1190  1.0000  -4.4360   0.0000   0.0000   0.0000   0.2761
  14.000   1.5595   0.05141   0.04464  -0.0759  0.1104  1.0000  -4.5175   0.0000   0.0000   0.0000   0.2748
  14.250   1.5594   0.05405   0.04730  -0.0748  0.1029  1.0000  -4.5969   0.0000   0.0000   0.0000   0.2735
  14.500   1.5588   0.05681   0.05007  -0.0738  0.0963  1.0000  -4.6740   0.0000   0.0000   0.0000   0.2723
  14.750   1.5572   0.05971   0.05298  -0.0729  0.0906  1.0000  -4.7475   0.0000   0.0000   0.0000   0.2712
  15.000   1.5563   0.06262   0.05592  -0.0721  0.0853  1.0000  -4.8226   0.0000   0.0000   0.0000   0.2702
  15.250   1.5563   0.06547   0.05883  -0.0714  0.0804  1.0000  -4.9000   0.0000   0.0000   0.0000   0.2692
  15.500   1.5544   0.06858   0.06198  -0.0708  0.0763  1.0000  -4.9700   0.0000   0.0000   0.0000   0.2683
  15.750   1.5517   0.07184   0.06527  -0.0703  0.0726  1.0000  -5.0387   0.0000   0.0000   0.0000   0.2675
  16.000   1.5512   0.07490   0.06841  -0.0699  0.0688  1.0000  -5.1155   0.0000   0.0000   0.0000   0.2667
  16.250   1.5469   0.07844   0.07196  -0.0696  0.0659  1.0000  -5.1845   0.0000   0.0000   0.0000   0.2660
  16.500   1.5464   0.08159   0.07521  -0.0694  0.0626  1.0000  -5.2750   0.0000   0.0000   0.0000   0.2654
  16.750   1.5427   0.08516   0.07882  -0.0694  0.0600  1.0000  -5.3504   0.0000   0.0000   0.0000   0.2648
  17.000   1.5409   0.08853   0.08227  -0.0694  0.0572  1.0000  -5.4343   0.0000   0.0000   0.0000   0.2643
  17.250   1.5374   0.09215   0.08594  -0.0695  0.0548  1.0000  -5.5101   0.0000   0.0000   0.0000   0.2639
  17.500   1.5353   0.09566   0.08952  -0.0698  0.0523  1.0000  -5.5940   0.0000   0.0000   0.0000   0.2635
  17.750   1.5321   0.09927   0.09317  -0.0701  0.0502  1.0000  -5.6709   0.0000   0.0000   0.0000   0.2632
  18.000   1.5302   0.10279   0.09678  -0.0706  0.0479  1.0000  -5.7534   0.0000   0.0000   0.0000   0.2630
  18.250   1.5279   0.10628   0.10029  -0.0711  0.0462  1.0000  -5.8335   0.0000   0.0000   0.0000   0.2627
  18.500   1.5269   0.10973   0.10385  -0.0718  0.0442  1.0000  -5.9158   0.0000   0.0000   0.0000   0.2626
  18.750   1.5264   0.11289   0.10698  -0.0723  0.0428  1.0000  -6.0072   0.0000   0.0000   0.0000   0.2623
  19.000   1.5258   0.11633   0.11055  -0.0731  0.0411  1.0000  -6.0875   0.0000   0.0000   0.0000   0.2622
  19.250   1.5265   0.11946   0.11372  -0.0740  0.0397  1.0000  -6.1811   0.0000   0.0000   0.0000   0.2621
  19.500   1.5285   0.12225   0.11651  -0.0746  0.0385  1.0000  -6.2819   0.0000   0.0000   0.0000   0.2618
  19.750   1.5288   0.12555   0.11995  -0.0756  0.0373  1.0000  -6.3654   0.0000   0.0000   0.0000   0.2618
  20.000   1.5317   0.12828   0.12270  -0.0765  0.0362  1.0000  -6.4709   0.0000   0.0000   0.0000   0.2616


