xflr5 v6.61

 Calculated polar for: QX0026  thickness=14.08

 1 1 Reynolds number fixed          Mach number fixed         

 xtrf =   1.000 (top)        1.000 (bottom)
 Mach =   0.000     Re =     0.360 e 6     Ncrit =   9.000

  alpha     CL        CD       CDp       Cm    Top Xtr Bot Xtr   Cpmin    Chinge    XCp    
 ------- -------- --------- --------- -------- ------- ------- -------- --------- ---------
  -9.500  -0.1851   0.08405   0.08092  -0.0900  0.8723  0.0472  -2.1786   0.0000   0.0000   0.0000  -0.2727
  -9.250  -0.1698   0.08308   0.07992  -0.0886  0.8686  0.0476  -2.0274   0.0000   0.0000   0.0000  -0.3098
  -9.000  -0.1585   0.08119   0.07802  -0.0888  0.8648  0.0483  -1.9426   0.0000   0.0000   0.0000  -0.3495
  -8.750  -0.1530   0.07795   0.07478  -0.0908  0.8602  0.0496  -1.9395   0.0000   0.0000   0.0000  -0.3830
  -8.250  -0.2786   0.02580   0.02031  -0.1357  0.8454  0.0347  -4.2208   0.0000   0.0000   0.0000  -0.2618
  -8.000  -0.2570   0.02378   0.01793  -0.1360  0.8412  0.0354  -4.1246   0.0000   0.0000   0.0000  -0.3049
  -7.750  -0.2342   0.02199   0.01558  -0.1361  0.8376  0.0364  -4.0370   0.0000   0.0000   0.0000  -0.3583
  -7.500  -0.2083   0.02112   0.01475  -0.1362  0.8350  0.0372  -3.8528   0.0000   0.0000   0.0000  -0.4333
  -7.250  -0.1824   0.02030   0.01384  -0.1362  0.8313  0.0382  -3.6929   0.0000   0.0000   0.0000  -0.5293
  -7.000  -0.1564   0.01928   0.01256  -0.1362  0.8277  0.0393  -3.5581   0.0000   0.0000   0.0000  -0.6573
  -6.750  -0.1299   0.01844   0.01161  -0.1363  0.8249  0.0404  -3.4079   0.0000   0.0000   0.0000  -0.8411
  -6.500  -0.1029   0.01787   0.01101  -0.1363  0.8219  0.0418  -3.2483   0.0000   0.0000   0.0000  -1.1253
  -6.250  -0.0759   0.01723   0.01015  -0.1363  0.8181  0.0433  -3.1132   0.0000   0.0000   0.0000  -1.6124
  -6.000  -0.0489   0.01657   0.00955  -0.1364  0.8151  0.0447  -2.9562   0.0000   0.0000   0.0000  -2.6347
  -5.750  -0.0210   0.01610   0.00894  -0.1364  0.8127  0.0467  -2.8158   0.0000   0.0000   0.0000  -6.4708
  -5.500   0.0056   0.01556   0.00846  -0.1365  0.8086  0.0486  -2.6736   0.0000   0.0000   0.0000  25.3215
  -5.250   0.0334   0.01516   0.00797  -0.1365  0.8054  0.0509  -2.5341   0.0000   0.0000   0.0000   4.4574
  -5.000   0.0611   0.01467   0.00751  -0.1366  0.8028  0.0534  -2.3895   0.0000   0.0000   0.0000   2.5479
  -4.750   0.0885   0.01430   0.00711  -0.1366  0.7992  0.0564  -2.2620   0.0000   0.0000   0.0000   1.8343
  -4.500   0.1162   0.01396   0.00678  -0.1367  0.7957  0.0599  -2.1287   0.0000   0.0000   0.0000   1.4559
  -4.250   0.1444   0.01358   0.00641  -0.1369  0.7929  0.0638  -1.9968   0.0000   0.0000   0.0000   1.2203
  -4.000   0.1724   0.01327   0.00610  -0.1370  0.7898  0.0687  -1.8675   0.0000   0.0000   0.0000   1.0623
  -3.750   0.2001   0.01298   0.00584  -0.1371  0.7860  0.0750  -1.7446   0.0000   0.0000   0.0000   0.9492
  -3.500   0.2287   0.01268   0.00554  -0.1373  0.7830  0.0838  -1.6245   0.0000   0.0000   0.0000   0.8617
  -3.250   0.2573   0.01237   0.00527  -0.1375  0.7802  0.0971  -1.5055   0.0000   0.0000   0.0000   0.7937
  -3.000   0.2849   0.01210   0.00511  -0.1376  0.7760  0.1193  -1.3901   0.0000   0.0000   0.0000   0.7407
  -2.750   0.3134   0.01180   0.00493  -0.1379  0.7728  0.1539  -1.2754   0.0000   0.0000   0.0000   0.6962
  -2.500   0.3425   0.01156   0.00478  -0.1382  0.7701  0.1928  -1.1620   0.0000   0.0000   0.0000   0.6586
  -2.250   0.3700   0.01139   0.00476  -0.1384  0.7656  0.2314  -1.0535   0.0000   0.0000   0.0000   0.6280
  -2.000   0.3987   0.01118   0.00466  -0.1386  0.7622  0.2740  -0.9476   0.0000   0.0000   0.0000   0.6009
  -1.750   0.4276   0.01096   0.00457  -0.1389  0.7593  0.3243  -0.8452   0.0000   0.0000   0.0000   0.5773
  -1.500   0.4550   0.01077   0.00458  -0.1390  0.7547  0.3843  -0.7794   0.0000   0.0000   0.0000   0.5573
  -1.250   0.4835   0.01051   0.00452  -0.1392  0.7513  0.4590  -0.7976   0.0000   0.0000   0.0000   0.5391
  -1.000   0.5112   0.01029   0.00454  -0.1393  0.7477  0.5428  -0.8160   0.0000   0.0000   0.0000   0.5230
  -0.750   0.5381   0.01011   0.00460  -0.1390  0.7432  0.6178  -0.8346   0.0000   0.0000   0.0000   0.5084
  -0.500   0.5659   0.00996   0.00459  -0.1388  0.7399  0.6855  -0.8546   0.0000   0.0000   0.0000   0.4949
  -0.250   0.5921   0.00990   0.00466  -0.1383  0.7353  0.7362  -0.8738   0.0000   0.0000   0.0000   0.4828
   0.000   0.6186   0.00980   0.00465  -0.1378  0.7312  0.7800  -0.8940   0.0000   0.0000   0.0000   0.4715
   0.250   0.6444   0.00972   0.00464  -0.1370  0.7275  0.8204  -0.9148   0.0000   0.0000   0.0000   0.4610
   0.500   0.6681   0.00964   0.00466  -0.1359  0.7225  0.8609  -0.9347   0.0000   0.0000   0.0000   0.4513
   0.750   0.6917   0.00951   0.00457  -0.1345  0.7189  0.9078  -0.9555   0.0000   0.0000   0.0000   0.4420
   1.000   0.7241   0.00942   0.00453  -0.1352  0.7136  0.9718  -0.9818   0.0000   0.0000   0.0000   0.4339
   1.250   0.7577   0.00940   0.00443  -0.1364  0.7094  1.0000  -1.0100   0.0000   0.0000   0.0000   0.4269
   1.500   0.7860   0.00947   0.00446  -0.1367  0.7040  1.0000  -1.0353   0.0000   0.0000   0.0000   0.4204
   1.750   0.8155   0.00949   0.00441  -0.1370  0.6994  1.0000  -1.0625   0.0000   0.0000   0.0000   0.4142
   2.000   0.8434   0.00956   0.00445  -0.1371  0.6938  1.0000  -1.0900   0.0000   0.0000   0.0000   0.4084
   2.250   0.8726   0.00959   0.00442  -0.1374  0.6889  1.0000  -1.1192   0.0000   0.0000   0.0000   0.4029
   2.500   0.9001   0.00966   0.00448  -0.1374  0.6827  1.0000  -1.1476   0.0000   0.0000   0.0000   0.3978
   2.750   0.9293   0.00969   0.00445  -0.1376  0.6778  1.0000  -1.1789   0.0000   0.0000   0.0000   0.3929
   3.000   0.9563   0.00977   0.00453  -0.1375  0.6709  1.0000  -1.2096   0.0000   0.0000   0.0000   0.3883
   3.250   0.9840   0.00983   0.00457  -0.1375  0.6647  1.0000  -1.2416   0.0000   0.0000   0.0000   0.3840
   3.500   1.0122   0.00989   0.00458  -0.1376  0.6584  1.0000  -1.2758   0.0000   0.0000   0.0000   0.3798
   3.750   1.0389   0.00998   0.00468  -0.1374  0.6510  1.0000  -1.3115   0.0000   0.0000   0.0000   0.3758
   4.000   1.0660   0.01006   0.00475  -0.1373  0.6436  1.0000  -1.3480   0.0000   0.0000   0.0000   0.3720
   4.250   1.0932   0.01015   0.00481  -0.1372  0.6362  1.0000  -1.3878   0.0000   0.0000   0.0000   0.3684
   4.500   1.1199   0.01024   0.00488  -0.1371  0.6281  1.0000  -1.4288   0.0000   0.0000   0.0000   0.3649
   4.750   1.1458   0.01035   0.00500  -0.1367  0.6189  1.0000  -1.4706   0.0000   0.0000   0.0000   0.3615
   5.000   1.1716   0.01048   0.00511  -0.1364  0.6092  1.0000  -1.5154   0.0000   0.0000   0.0000   0.3583
   5.250   1.1971   0.01062   0.00524  -0.1360  0.5992  1.0000  -1.5624   0.0000   0.0000   0.0000   0.3551
   5.500   1.2222   0.01077   0.00538  -0.1356  0.5885  1.0000  -1.6116   0.0000   0.0000   0.0000   0.3521
   5.750   1.2468   0.01095   0.00554  -0.1350  0.5772  1.0000  -1.6658   0.0000   0.0000   0.0000   0.3491
   6.000   1.2706   0.01115   0.00574  -0.1344  0.5646  1.0000  -1.7270   0.0000   0.0000   0.0000   0.3462
   6.250   1.2939   0.01138   0.00595  -0.1336  0.5515  1.0000  -1.7951   0.0000   0.0000   0.0000   0.3434
   6.500   1.3164   0.01165   0.00617  -0.1328  0.5378  1.0000  -1.8695   0.0000   0.0000   0.0000   0.3406
   6.750   1.3379   0.01193   0.00645  -0.1317  0.5225  1.0000  -1.9453   0.0000   0.0000   0.0000   0.3378
   7.000   1.3583   0.01228   0.00674  -0.1305  0.5069  1.0000  -2.0230   0.0000   0.0000   0.0000   0.3351
   7.250   1.3775   0.01265   0.00708  -0.1291  0.4897  1.0000  -2.1028   0.0000   0.0000   0.0000   0.3323
   7.500   1.3951   0.01309   0.00746  -0.1275  0.4719  1.0000  -2.1814   0.0000   0.0000   0.0000   0.3296
   7.750   1.4109   0.01358   0.00789  -0.1256  0.4538  1.0000  -2.2597   0.0000   0.0000   0.0000   0.3268
   8.250   1.4360   0.01472   0.00891  -0.1207  0.4186  1.0000  -2.4234   0.0000   0.0000   0.0000   0.3211
   8.500   1.4480   0.01539   0.00953  -0.1184  0.4012  1.0000  -2.5232   0.0000   0.0000   0.0000   0.3184
   8.750   1.4591   0.01616   0.01024  -0.1161  0.3843  1.0000  -2.6219   0.0000   0.0000   0.0000   0.3158
   9.000   1.4703   0.01697   0.01101  -0.1139  0.3676  1.0000  -2.7217   0.0000   0.0000   0.0000   0.3132
   9.250   1.4812   0.01784   0.01184  -0.1118  0.3513  1.0000  -2.8220   0.0000   0.0000   0.0000   0.3108
   9.750   1.5013   0.01982   0.01374  -0.1077  0.3192  1.0000  -3.0219   0.0000   0.0000   0.0000   0.3062
  10.000   1.5104   0.02093   0.01480  -0.1056  0.3035  1.0000  -3.1235   0.0000   0.0000   0.0000   0.3040
  10.250   1.5191   0.02210   0.01593  -0.1036  0.2877  1.0000  -3.2250   0.0000   0.0000   0.0000   0.3018
  10.500   1.5274   0.02334   0.01713  -0.1017  0.2719  1.0000  -3.3261   0.0000   0.0000   0.0000   0.2997
  10.750   1.5340   0.02472   0.01846  -0.0997  0.2563  1.0000  -3.4230   0.0000   0.0000   0.0000   0.2976
  11.000   1.5412   0.02610   0.01980  -0.0978  0.2401  1.0000  -3.5225   0.0000   0.0000   0.0000   0.2956
  11.250   1.5471   0.02760   0.02126  -0.0958  0.2245  1.0000  -3.6188   0.0000   0.0000   0.0000   0.2936
  11.500   1.5516   0.02924   0.02283  -0.0939  0.2092  1.0000  -3.7115   0.0000   0.0000   0.0000   0.2917
  11.750   1.5569   0.03085   0.02441  -0.0920  0.1939  1.0000  -3.8069   0.0000   0.0000   0.0000   0.2898
  12.000   1.5607   0.03261   0.02612  -0.0902  0.1795  1.0000  -3.8980   0.0000   0.0000   0.0000   0.2880
  12.250   1.5643   0.03443   0.02790  -0.0884  0.1656  1.0000  -3.9890   0.0000   0.0000   0.0000   0.2862
  12.500   1.5676   0.03632   0.02975  -0.0867  0.1528  1.0000  -4.0793   0.0000   0.0000   0.0000   0.2845
  12.750   1.5711   0.03826   0.03167  -0.0851  0.1407  1.0000  -4.1700   0.0000   0.0000   0.0000   0.2829
  13.000   1.5734   0.04035   0.03374  -0.0835  0.1299  1.0000  -4.2578   0.0000   0.0000   0.0000   0.2813
  13.250   1.5764   0.04244   0.03582  -0.0820  0.1198  1.0000  -4.3506   0.0000   0.0000   0.0000   0.2797
  13.500   1.5789   0.04462   0.03799  -0.0807  0.1104  1.0000  -4.4420   0.0000   0.0000   0.0000   0.2783
  13.750   1.5807   0.04692   0.04029  -0.0794  0.1020  1.0000  -4.5310   0.0000   0.0000   0.0000   0.2768
  14.000   1.5822   0.04931   0.04268  -0.0782  0.0947  1.0000  -4.6186   0.0000   0.0000   0.0000   0.2755
  14.250   1.5834   0.05177   0.04517  -0.0770  0.0883  1.0000  -4.7050   0.0000   0.0000   0.0000   0.2742
  14.500   1.5841   0.05435   0.04777  -0.0760  0.0827  1.0000  -4.7891   0.0000   0.0000   0.0000   0.2730
  14.750   1.5835   0.05712   0.05055  -0.0750  0.0779  1.0000  -4.8686   0.0000   0.0000   0.0000   0.2718
  15.000   1.5845   0.05976   0.05324  -0.0742  0.0733  1.0000  -4.9536   0.0000   0.0000   0.0000   0.2707
  15.250   1.5849   0.06253   0.05607  -0.0734  0.0693  1.0000  -5.0352   0.0000   0.0000   0.0000   0.2697
  15.500   1.5822   0.06570   0.05926  -0.0727  0.0661  1.0000  -5.1055   0.0000   0.0000   0.0000   0.2687
  15.750   1.5830   0.06852   0.06216  -0.0722  0.0625  1.0000  -5.1908   0.0000   0.0000   0.0000   0.2678
  16.000   1.5807   0.07174   0.06543  -0.0717  0.0596  1.0000  -5.2682   0.0000   0.0000   0.0000   0.2670
  16.250   1.5790   0.07496   0.06871  -0.0714  0.0568  1.0000  -5.3584   0.0000   0.0000   0.0000   0.2662
  16.500   1.5767   0.07830   0.07212  -0.0711  0.0541  1.0000  -5.4439   0.0000   0.0000   0.0000   0.2655
  16.750   1.5732   0.08184   0.07571  -0.0710  0.0517  1.0000  -5.5253   0.0000   0.0000   0.0000   0.2650
  17.000   1.5705   0.08533   0.07929  -0.0710  0.0493  1.0000  -5.6106   0.0000   0.0000   0.0000   0.2644
  17.250   1.5662   0.08907   0.08308  -0.0711  0.0473  1.0000  -5.6889   0.0000   0.0000   0.0000   0.2640
  17.500   1.5626   0.09275   0.08685  -0.0713  0.0452  1.0000  -5.7675   0.0000   0.0000   0.0000   0.2637
  17.750   1.5584   0.09658   0.09073  -0.0717  0.0433  1.0000  -5.8437   0.0000   0.0000   0.0000   0.2634
  18.000   1.5537   0.10048   0.09471  -0.0722  0.0417  1.0000  -5.9137   0.0000   0.0000   0.0000   0.2632
  18.250   1.5505   0.10424   0.09855  -0.0728  0.0400  1.0000  -5.9913   0.0000   0.0000   0.0000   0.2631
  18.500   1.5451   0.10829   0.10262  -0.0735  0.0387  1.0000  -6.0566   0.0000   0.0000   0.0000   0.2631
  18.750   1.5432   0.11193   0.10638  -0.0743  0.0371  1.0000  -6.1366   0.0000   0.0000   0.0000   0.2631
  19.000   1.5401   0.11570   0.11019  -0.0753  0.0360  1.0000  -6.2126   0.0000   0.0000   0.0000   0.2631
  19.250   1.5375   0.11941   0.11396  -0.0763  0.0348  1.0000  -6.2870   0.0000   0.0000   0.0000   0.2632
  19.500   1.5364   0.12295   0.11760  -0.0774  0.0337  1.0000  -6.3680   0.0000   0.0000   0.0000   0.2633
  19.750   1.5355   0.12640   0.12108  -0.0785  0.0328  1.0000  -6.4533   0.0000   0.0000   0.0000   0.2634
  20.000   1.5353   0.12968   0.12437  -0.0796  0.0320  1.0000  -6.5412   0.0000   0.0000   0.0000   0.2635


