xflr5 v6.61

 Calculated polar for: QX0026  thickness=14.08

 1 1 Reynolds number fixed          Mach number fixed         

 xtrf =   1.000 (top)        1.000 (bottom)
 Mach =   0.000     Re =     0.980 e 6     Ncrit =   9.000

  alpha     CL        CD       CDp       Cm    Top Xtr Bot Xtr   Cpmin    Chinge    XCp    
 ------- -------- --------- --------- -------- ------- ------- -------- --------- ---------
 -10.000  -0.4998   0.01677   0.01150  -0.1301  0.8107  0.0207  -6.5303   0.0000   0.0000   0.0000  -0.0293
  -9.750  -0.4743   0.01604   0.01071  -0.1302  0.8074  0.0211  -6.3007   0.0000   0.0000   0.0000  -0.0439
  -9.500  -0.4478   0.01555   0.01019  -0.1304  0.8044  0.0215  -6.0576   0.0000   0.0000   0.0000  -0.0608
  -9.250  -0.4209   0.01512   0.00969  -0.1306  0.8016  0.0219  -5.8188   0.0000   0.0000   0.0000  -0.0802
  -9.000  -0.3937   0.01466   0.00917  -0.1308  0.7985  0.0224  -5.5867   0.0000   0.0000   0.0000  -0.1026
  -8.750  -0.3662   0.01425   0.00866  -0.1309  0.7954  0.0229  -5.3582   0.0000   0.0000   0.0000  -0.1286
  -8.500  -0.3395   0.01370   0.00807  -0.1311  0.7926  0.0234  -5.1383   0.0000   0.0000   0.0000  -0.1579
  -8.250  -0.3118   0.01334   0.00768  -0.1313  0.7898  0.0240  -4.9173   0.0000   0.0000   0.0000  -0.1937
  -8.000  -0.2840   0.01297   0.00728  -0.1315  0.7866  0.0246  -4.7039   0.0000   0.0000   0.0000  -0.2368
  -7.750  -0.2559   0.01264   0.00686  -0.1317  0.7837  0.0252  -4.4963   0.0000   0.0000   0.0000  -0.2896
  -7.500  -0.2285   0.01220   0.00638  -0.1319  0.7811  0.0258  -4.2978   0.0000   0.0000   0.0000  -0.3540
  -7.250  -0.2003   0.01190   0.00608  -0.1321  0.7781  0.0266  -4.0973   0.0000   0.0000   0.0000  -0.4389
  -7.000  -0.1719   0.01163   0.00575  -0.1323  0.7750  0.0275  -3.9046   0.0000   0.0000   0.0000  -0.5524
  -6.750  -0.1438   0.01126   0.00534  -0.1325  0.7723  0.0283  -3.7184   0.0000   0.0000   0.0000  -0.7084
  -6.500  -0.1154   0.01100   0.00506  -0.1327  0.7696  0.0292  -3.5308   0.0000   0.0000   0.0000  -0.9438
  -6.250  -0.0867   0.01077   0.00479  -0.1329  0.7665  0.0303  -3.3564   0.0000   0.0000   0.0000  -1.3386
  -6.000  -0.0584   0.01045   0.00447  -0.1332  0.7635  0.0315  -3.1832   0.0000   0.0000   0.0000  -2.1104
  -5.750  -0.0296   0.01027   0.00424  -0.1334  0.7608  0.0329  -3.0114   0.0000   0.0000   0.0000  -4.4004
  -5.500  -0.0010   0.01000   0.00396  -0.1336  0.7579  0.0343  -2.8446   0.0000   0.0000   0.0000  -135.2775
  -5.250   0.0279   0.00980   0.00376  -0.1339  0.7548  0.0359  -2.6783   0.0000   0.0000   0.0000   5.1925
  -5.000   0.0566   0.00957   0.00352  -0.1341  0.7519  0.0377  -2.5239   0.0000   0.0000   0.0000   2.6833
  -4.750   0.0856   0.00944   0.00333  -0.1343  0.7492  0.0398  -2.3712   0.0000   0.0000   0.0000   1.8600
  -4.500   0.1145   0.00922   0.00314  -0.1346  0.7459  0.0421  -2.2210   0.0000   0.0000   0.0000   1.4542
  -4.250   0.1434   0.00903   0.00295  -0.1349  0.7427  0.0448  -2.0742   0.0000   0.0000   0.0000   1.2114
  -4.000   0.1724   0.00888   0.00277  -0.1351  0.7398  0.0480  -1.9297   0.0000   0.0000   0.0000   1.0499
  -3.750   0.2014   0.00872   0.00263  -0.1353  0.7366  0.0520  -1.7930   0.0000   0.0000   0.0000   0.9348
  -3.500   0.2305   0.00855   0.00248  -0.1356  0.7332  0.0575  -1.6608   0.0000   0.0000   0.0000   0.8488
  -3.250   0.2595   0.00840   0.00234  -0.1359  0.7301  0.0655  -1.5314   0.0000   0.0000   0.0000   0.7820
  -3.000   0.2885   0.00824   0.00223  -0.1361  0.7268  0.0779  -1.4046   0.0000   0.0000   0.0000   0.7287
  -2.750   0.3174   0.00806   0.00212  -0.1364  0.7230  0.0967  -1.2817   0.0000   0.0000   0.0000   0.6853
  -2.500   0.3464   0.00790   0.00203  -0.1367  0.7197  0.1205  -1.1655   0.0000   0.0000   0.0000   0.6491
  -2.250   0.3754   0.00776   0.00196  -0.1370  0.7161  0.1469  -1.0517   0.0000   0.0000   0.0000   0.6185
  -2.000   0.4044   0.00761   0.00191  -0.1373  0.7122  0.1748  -0.9425   0.0000   0.0000   0.0000   0.5922
  -1.750   0.4333   0.00751   0.00185  -0.1376  0.7087  0.2017  -0.8391   0.0000   0.0000   0.0000   0.5694
  -1.500   0.4623   0.00737   0.00182  -0.1379  0.7047  0.2329  -0.7897   0.0000   0.0000   0.0000   0.5495
  -1.250   0.4913   0.00725   0.00179  -0.1382  0.7007  0.2676  -0.8082   0.0000   0.0000   0.0000   0.5319
  -1.000   0.5202   0.00713   0.00176  -0.1385  0.6970  0.3082  -0.8267   0.0000   0.0000   0.0000   0.5164
  -0.750   0.5491   0.00698   0.00176  -0.1388  0.6925  0.3585  -0.8462   0.0000   0.0000   0.0000   0.5024
  -0.500   0.5778   0.00683   0.00175  -0.1391  0.6886  0.4201  -0.8664   0.0000   0.0000   0.0000   0.4899
  -0.250   0.6065   0.00665   0.00177  -0.1394  0.6841  0.4901  -0.8868   0.0000   0.0000   0.0000   0.4786
   0.000   0.6351   0.00652   0.00180  -0.1396  0.6796  0.5573  -0.9079   0.0000   0.0000   0.0000   0.4682
   0.250   0.6636   0.00642   0.00183  -0.1398  0.6750  0.6135  -0.9302   0.0000   0.0000   0.0000   0.4587
   0.500   0.6920   0.00634   0.00188  -0.1399  0.6701  0.6696  -0.9528   0.0000   0.0000   0.0000   0.4498
   0.750   0.7204   0.00630   0.00193  -0.1400  0.6654  0.7093  -0.9759   0.0000   0.0000   0.0000   0.4416
   1.000   0.7486   0.00627   0.00197  -0.1400  0.6601  0.7423  -1.0002   0.0000   0.0000   0.0000   0.4340
   1.250   0.7767   0.00626   0.00202  -0.1400  0.6549  0.7737  -1.0254   0.0000   0.0000   0.0000   0.4269
   1.500   0.8043   0.00624   0.00207  -0.1399  0.6494  0.8043  -1.0506   0.0000   0.0000   0.0000   0.4203
   1.750   0.8317   0.00622   0.00212  -0.1398  0.6436  0.8373  -1.0768   0.0000   0.0000   0.0000   0.4140
   2.000   0.8576   0.00621   0.00218  -0.1393  0.6379  0.8724  -1.1034   0.0000   0.0000   0.0000   0.4081
   2.250   0.8814   0.00615   0.00223  -0.1382  0.6314  0.9228  -1.1294   0.0000   0.0000   0.0000   0.4022
   2.500   0.9126   0.00612   0.00223  -0.1388  0.6251  1.0000  -1.1605   0.0000   0.0000   0.0000   0.3972
   2.750   0.9408   0.00621   0.00228  -0.1390  0.6182  1.0000  -1.1911   0.0000   0.0000   0.0000   0.3924
   3.000   0.9692   0.00630   0.00235  -0.1392  0.6106  1.0000  -1.2231   0.0000   0.0000   0.0000   0.3880
   3.250   0.9972   0.00640   0.00242  -0.1393  0.6029  1.0000  -1.2554   0.0000   0.0000   0.0000   0.3837
   3.500   1.0249   0.00652   0.00250  -0.1393  0.5945  1.0000  -1.2897   0.0000   0.0000   0.0000   0.3797
   3.750   1.0524   0.00664   0.00259  -0.1394  0.5852  1.0000  -1.3263   0.0000   0.0000   0.0000   0.3758
   4.000   1.0796   0.00678   0.00269  -0.1393  0.5752  1.0000  -1.3631   0.0000   0.0000   0.0000   0.3722
   4.250   1.1066   0.00692   0.00280  -0.1393  0.5649  1.0000  -1.4036   0.0000   0.0000   0.0000   0.3686
   4.500   1.1333   0.00709   0.00292  -0.1392  0.5533  1.0000  -1.4450   0.0000   0.0000   0.0000   0.3652
   4.750   1.1595   0.00727   0.00306  -0.1390  0.5407  1.0000  -1.4871   0.0000   0.0000   0.0000   0.3620
   5.000   1.1852   0.00748   0.00322  -0.1387  0.5279  1.0000  -1.5332   0.0000   0.0000   0.0000   0.3588
   5.250   1.2108   0.00770   0.00338  -0.1384  0.5135  1.0000  -1.5803   0.0000   0.0000   0.0000   0.3557
   5.500   1.2353   0.00796   0.00358  -0.1379  0.4976  1.0000  -1.6305   0.0000   0.0000   0.0000   0.3527
   5.750   1.2597   0.00823   0.00378  -0.1375  0.4812  1.0000  -1.6855   0.0000   0.0000   0.0000   0.3498
   6.000   1.2832   0.00854   0.00402  -0.1368  0.4639  1.0000  -1.7481   0.0000   0.0000   0.0000   0.3470
   6.250   1.3057   0.00889   0.00429  -0.1360  0.4454  1.0000  -1.8188   0.0000   0.0000   0.0000   0.3442
   6.500   1.3276   0.00927   0.00458  -0.1351  0.4262  1.0000  -1.8929   0.0000   0.0000   0.0000   0.3415
   6.750   1.3488   0.00967   0.00489  -0.1342  0.4067  1.0000  -1.9701   0.0000   0.0000   0.0000   0.3388
   7.000   1.3696   0.01007   0.00521  -0.1331  0.3879  1.0000  -2.0521   0.0000   0.0000   0.0000   0.3361
   7.250   1.3893   0.01051   0.00556  -0.1319  0.3688  1.0000  -2.1346   0.0000   0.0000   0.0000   0.3335
   7.500   1.4082   0.01096   0.00593  -0.1305  0.3509  1.0000  -2.2179   0.0000   0.0000   0.0000   0.3309
   7.750   1.4245   0.01142   0.00632  -0.1287  0.3348  1.0000  -2.2976   0.0000   0.0000   0.0000   0.3281
   8.000   1.4411   0.01190   0.00675  -0.1270  0.3184  1.0000  -2.3861   0.0000   0.0000   0.0000   0.3255
   8.250   1.4567   0.01246   0.00723  -0.1251  0.3017  1.0000  -2.4948   0.0000   0.0000   0.0000   0.3229
   8.500   1.4711   0.01309   0.00779  -0.1232  0.2848  1.0000  -2.6023   0.0000   0.0000   0.0000   0.3204
   8.750   1.4850   0.01378   0.00840  -0.1214  0.2672  1.0000  -2.7098   0.0000   0.0000   0.0000   0.3179
   9.000   1.4988   0.01451   0.00905  -0.1195  0.2504  1.0000  -2.8182   0.0000   0.0000   0.0000   0.3155
   9.250   1.5120   0.01530   0.00977  -0.1177  0.2346  1.0000  -2.9297   0.0000   0.0000   0.0000   0.3132
   9.500   1.5243   0.01617   0.01057  -0.1158  0.2188  1.0000  -3.0404   0.0000   0.0000   0.0000   0.3109
   9.750   1.5368   0.01705   0.01139  -0.1141  0.2033  1.0000  -3.1532   0.0000   0.0000   0.0000   0.3087
  10.000   1.5485   0.01801   0.01229  -0.1123  0.1892  1.0000  -3.2646   0.0000   0.0000   0.0000   0.3066
  10.250   1.5597   0.01902   0.01323  -0.1105  0.1747  1.0000  -3.3760   0.0000   0.0000   0.0000   0.3044
  10.500   1.5699   0.02012   0.01426  -0.1086  0.1608  1.0000  -3.4857   0.0000   0.0000   0.0000   0.3023
  10.750   1.5795   0.02127   0.01536  -0.1068  0.1474  1.0000  -3.5945   0.0000   0.0000   0.0000   0.3003
  11.000   1.5890   0.02245   0.01649  -0.1050  0.1350  1.0000  -3.7042   0.0000   0.0000   0.0000   0.2983
  11.250   1.5980   0.02370   0.01768  -0.1032  0.1234  1.0000  -3.8130   0.0000   0.0000   0.0000   0.2963
  11.500   1.6066   0.02498   0.01893  -0.1014  0.1133  1.0000  -3.9216   0.0000   0.0000   0.0000   0.2944
  11.750   1.6155   0.02626   0.02018  -0.0997  0.1039  1.0000  -4.0322   0.0000   0.0000   0.0000   0.2925
  12.000   1.6238   0.02761   0.02150  -0.0981  0.0952  1.0000  -4.1416   0.0000   0.0000   0.0000   0.2907
  12.250   1.6315   0.02901   0.02288  -0.0964  0.0873  1.0000  -4.2501   0.0000   0.0000   0.0000   0.2889
  12.500   1.6390   0.03046   0.02432  -0.0947  0.0803  1.0000  -4.3595   0.0000   0.0000   0.0000   0.2871
  12.750   1.6462   0.03195   0.02580  -0.0931  0.0741  1.0000  -4.4718   0.0000   0.0000   0.0000   0.2854
  13.000   1.6535   0.03348   0.02733  -0.0916  0.0686  1.0000  -4.5850   0.0000   0.0000   0.0000   0.2837
  13.250   1.6605   0.03506   0.02892  -0.0902  0.0637  1.0000  -4.6981   0.0000   0.0000   0.0000   0.2821
  13.500   1.6672   0.03671   0.03057  -0.0888  0.0594  1.0000  -4.8108   0.0000   0.0000   0.0000   0.2805
  13.750   1.6733   0.03844   0.03231  -0.0874  0.0556  1.0000  -4.9221   0.0000   0.0000   0.0000   0.2790
  14.000   1.6803   0.04014   0.03403  -0.0862  0.0522  1.0000  -5.0372   0.0000   0.0000   0.0000   0.2775
  14.250   1.6868   0.04190   0.03583  -0.0850  0.0492  1.0000  -5.1511   0.0000   0.0000   0.0000   0.2760
  14.500   1.6920   0.04383   0.03777  -0.0838  0.0464  1.0000  -5.2607   0.0000   0.0000   0.0000   0.2746
  14.750   1.6981   0.04569   0.03967  -0.0827  0.0438  1.0000  -5.3743   0.0000   0.0000   0.0000   0.2733
  15.000   1.7033   0.04768   0.04170  -0.0817  0.0414  1.0000  -5.4845   0.0000   0.0000   0.0000   0.2719
  15.250   1.7070   0.04985   0.04390  -0.0806  0.0391  1.0000  -5.5934   0.0000   0.0000   0.0000   0.2707
  15.500   1.7119   0.05194   0.04603  -0.0797  0.0369  1.0000  -5.7294   0.0000   0.0000   0.0000   0.2694
  15.750   1.7147   0.05427   0.04840  -0.0788  0.0349  1.0000  -5.8563   0.0000   0.0000   0.0000   0.2682
  16.000   1.7173   0.05666   0.05084  -0.0779  0.0328  1.0000  -5.9835   0.0000   0.0000   0.0000   0.2671
  16.250   1.7198   0.05911   0.05333  -0.0772  0.0308  1.0000  -6.1099   0.0000   0.0000   0.0000   0.2660
  16.500   1.7201   0.06184   0.05610  -0.0764  0.0290  1.0000  -6.2260   0.0000   0.0000   0.0000   0.2649
  16.750   1.7212   0.06452   0.05884  -0.0758  0.0273  1.0000  -6.3463   0.0000   0.0000   0.0000   0.2639
  17.000   1.7207   0.06742   0.06179  -0.0752  0.0258  1.0000  -6.4589   0.0000   0.0000   0.0000   0.2630
  17.250   1.7195   0.07044   0.06487  -0.0747  0.0245  1.0000  -6.5679   0.0000   0.0000   0.0000   0.2621
  17.500   1.7178   0.07358   0.06807  -0.0743  0.0235  1.0000  -6.6736   0.0000   0.0000   0.0000   0.2613
  17.750   1.7162   0.07675   0.07131  -0.0740  0.0225  1.0000  -6.7804   0.0000   0.0000   0.0000   0.2605
  18.250   1.7104   0.08354   0.07824  -0.0737  0.0209  1.0000  -6.9790   0.0000   0.0000   0.0000   0.2592
  18.500   1.7071   0.08706   0.08183  -0.0738  0.0202  1.0000  -7.0785   0.0000   0.0000   0.0000   0.2587
  18.750   1.7012   0.09096   0.08579  -0.0739  0.0197  1.0000  -7.1637   0.0000   0.0000   0.0000   0.2583
  19.000   1.6975   0.09460   0.08952  -0.0742  0.0191  1.0000  -7.2603   0.0000   0.0000   0.0000   0.2579
  19.250   1.6939   0.09828   0.09329  -0.0746  0.0187  1.0000  -7.3569   0.0000   0.0000   0.0000   0.2576
  19.500   1.6888   0.10221   0.09730  -0.0752  0.0183  1.0000  -7.4431   0.0000   0.0000   0.0000   0.2574
  19.750   1.6824   0.10635   0.10152  -0.0759  0.0179  1.0000  -7.5196   0.0000   0.0000   0.0000   0.2573
  20.000   1.6738   0.11087   0.10612  -0.0770  0.0176  1.0000  -7.5801   0.0000   0.0000   0.0000   0.2575


