xflr5 v6.61

 Calculated polar for: QX0026  thickness=14.08

 1 1 Reynolds number fixed          Mach number fixed         

 xtrf =   1.000 (top)        1.000 (bottom)
 Mach =   0.000     Re =     0.375 e 6     Ncrit =   9.000

  alpha     CL        CD       CDp       Cm    Top Xtr Bot Xtr   Cpmin    Chinge    XCp    
 ------- -------- --------- --------- -------- ------- ------- -------- --------- ---------
 -10.000  -0.1911   0.09185   0.08875  -0.0841  0.8783  0.0434  -2.1037   0.0000   0.0000   0.0000  -0.2271
  -9.750  -0.1769   0.09042   0.08731  -0.0834  0.8742  0.0437  -1.9749   0.0000   0.0000   0.0000  -0.2601
  -9.500  -0.1661   0.08843   0.08530  -0.0837  0.8700  0.0445  -1.8954   0.0000   0.0000   0.0000  -0.2938
  -9.250  -0.3261   0.04020   0.03648  -0.1293  0.8584  0.0328  -4.2653   0.0000   0.0000   0.0000  -0.1698
  -9.000  -0.3317   0.03323   0.02888  -0.1333  0.8536  0.0324  -4.4477   0.0000   0.0000   0.0000  -0.1745
  -8.750  -0.3251   0.02805   0.02293  -0.1349  0.8490  0.0328  -4.5493   0.0000   0.0000   0.0000  -0.1878
  -8.500  -0.3084   0.02498   0.01918  -0.1354  0.8457  0.0334  -4.5254   0.0000   0.0000   0.0000  -0.2123
  -8.250  -0.2834   0.02412   0.01838  -0.1355  0.8420  0.0340  -4.3262   0.0000   0.0000   0.0000  -0.2527
  -8.000  -0.2589   0.02301   0.01714  -0.1357  0.8384  0.0346  -4.1613   0.0000   0.0000   0.0000  -0.2996
  -7.750  -0.2346   0.02167   0.01549  -0.1357  0.8355  0.0356  -4.0275   0.0000   0.0000   0.0000  -0.3558
  -7.500  -0.2099   0.02036   0.01384  -0.1358  0.8321  0.0366  -3.9054   0.0000   0.0000   0.0000  -0.4264
  -7.250  -0.1837   0.01964   0.01314  -0.1359  0.8285  0.0374  -3.7265   0.0000   0.0000   0.0000  -0.5222
  -7.000  -0.1571   0.01884   0.01221  -0.1359  0.8255  0.0385  -3.5674   0.0000   0.0000   0.0000  -0.6511
  -6.750  -0.1303   0.01802   0.01112  -0.1360  0.8228  0.0398  -3.4347   0.0000   0.0000   0.0000  -0.8349
  -6.500  -0.1038   0.01740   0.01057  -0.1360  0.8189  0.0410  -3.2686   0.0000   0.0000   0.0000  -1.1109
  -6.250  -0.0765   0.01682   0.00987  -0.1361  0.8158  0.0425  -3.1181   0.0000   0.0000   0.0000  -1.5934
  -6.000  -0.0491   0.01616   0.00913  -0.1361  0.8132  0.0440  -2.9729   0.0000   0.0000   0.0000  -2.6163
  -5.750  -0.0220   0.01573   0.00870  -0.1362  0.8095  0.0458  -2.8250   0.0000   0.0000   0.0000  -6.1439
  -5.500   0.0053   0.01521   0.00813  -0.1362  0.8061  0.0478  -2.6861   0.0000   0.0000   0.0000  26.5241
  -5.250   0.0332   0.01479   0.00768  -0.1363  0.8034  0.0500  -2.5395   0.0000   0.0000   0.0000   4.4766
  -5.000   0.0607   0.01436   0.00724  -0.1364  0.8003  0.0525  -2.3992   0.0000   0.0000   0.0000   2.5593
  -4.750   0.0884   0.01405   0.00690  -0.1364  0.7966  0.0555  -2.2671   0.0000   0.0000   0.0000   1.8337
  -4.500   0.1163   0.01364   0.00651  -0.1366  0.7936  0.0588  -2.1328   0.0000   0.0000   0.0000   1.4536
  -4.250   0.1447   0.01329   0.00614  -0.1367  0.7911  0.0628  -2.0007   0.0000   0.0000   0.0000   1.2171
  -4.000   0.1722   0.01300   0.00588  -0.1368  0.7870  0.0676  -1.8722   0.0000   0.0000   0.0000   1.0621
  -3.750   0.2005   0.01270   0.00559  -0.1370  0.7838  0.0738  -1.7471   0.0000   0.0000   0.0000   0.9472
  -3.500   0.2293   0.01241   0.00529  -0.1372  0.7813  0.0824  -1.6251   0.0000   0.0000   0.0000   0.8596
  -3.250   0.2570   0.01214   0.00510  -0.1373  0.7773  0.0953  -1.5080   0.0000   0.0000   0.0000   0.7935
  -3.000   0.2854   0.01185   0.00489  -0.1375  0.7738  0.1175  -1.3903   0.0000   0.0000   0.0000   0.7395
  -2.750   0.3143   0.01154   0.00470  -0.1378  0.7710  0.1515  -1.2744   0.0000   0.0000   0.0000   0.6948
  -2.500   0.3422   0.01135   0.00464  -0.1380  0.7671  0.1892  -1.1634   0.0000   0.0000   0.0000   0.6584
  -2.250   0.3706   0.01114   0.00455  -0.1383  0.7634  0.2274  -1.0527   0.0000   0.0000   0.0000   0.6271
  -2.000   0.3997   0.01094   0.00443  -0.1386  0.7606  0.2694  -0.9460   0.0000   0.0000   0.0000   0.5998
  -1.750   0.4275   0.01076   0.00441  -0.1387  0.7564  0.3174  -0.8458   0.0000   0.0000   0.0000   0.5769
  -1.500   0.4558   0.01054   0.00436  -0.1389  0.7526  0.3764  -0.7804   0.0000   0.0000   0.0000   0.5565
  -1.250   0.4847   0.01028   0.00428  -0.1392  0.7497  0.4494  -0.7989   0.0000   0.0000   0.0000   0.5383
  -1.000   0.5117   0.01008   0.00436  -0.1392  0.7450  0.5314  -0.8166   0.0000   0.0000   0.0000   0.5226
  -0.750   0.5394   0.00987   0.00436  -0.1391  0.7413  0.6076  -0.8359   0.0000   0.0000   0.0000   0.5079
  -0.500   0.5668   0.00974   0.00439  -0.1389  0.7376  0.6764  -0.8555   0.0000   0.0000   0.0000   0.4945
  -0.250   0.5933   0.00966   0.00444  -0.1384  0.7330  0.7282  -0.8748   0.0000   0.0000   0.0000   0.4825
   0.000   0.6205   0.00956   0.00441  -0.1380  0.7295  0.7722  -0.8956   0.0000   0.0000   0.0000   0.4711
   0.250   0.6457   0.00950   0.00447  -0.1373  0.7247  0.8122  -0.9158   0.0000   0.0000   0.0000   0.4609
   0.500   0.6707   0.00941   0.00444  -0.1363  0.7205  0.8523  -0.9367   0.0000   0.0000   0.0000   0.4512
   0.750   0.6937   0.00932   0.00442  -0.1349  0.7162  0.8966  -0.9568   0.0000   0.0000   0.0000   0.4420
   1.000   0.7217   0.00920   0.00435  -0.1346  0.7114  0.9550  -0.9808   0.0000   0.0000   0.0000   0.4336
   1.250   0.7586   0.00917   0.00425  -0.1365  0.7073  1.0000  -1.0109   0.0000   0.0000   0.0000   0.4268
   1.500   0.7868   0.00922   0.00427  -0.1367  0.7017  1.0000  -1.0362   0.0000   0.0000   0.0000   0.4202
   1.750   0.8165   0.00926   0.00423  -0.1371  0.6974  1.0000  -1.0635   0.0000   0.0000   0.0000   0.4140
   2.000   0.8443   0.00931   0.00427  -0.1372  0.6915  1.0000  -1.0910   0.0000   0.0000   0.0000   0.4083
   2.250   0.8732   0.00936   0.00426  -0.1374  0.6865  1.0000  -1.1199   0.0000   0.0000   0.0000   0.4028
   2.500   0.9011   0.00941   0.00429  -0.1375  0.6805  1.0000  -1.1487   0.0000   0.0000   0.0000   0.3977
   2.750   0.9292   0.00948   0.00433  -0.1375  0.6747  1.0000  -1.1790   0.0000   0.0000   0.0000   0.3929
   3.000   0.9575   0.00953   0.00433  -0.1376  0.6689  1.0000  -1.2109   0.0000   0.0000   0.0000   0.3883
   3.250   0.9847   0.00961   0.00441  -0.1376  0.6620  1.0000  -1.2424   0.0000   0.0000   0.0000   0.3839
   3.500   1.0125   0.00968   0.00445  -0.1376  0.6557  1.0000  -1.2764   0.0000   0.0000   0.0000   0.3798
   3.750   1.0400   0.00975   0.00450  -0.1376  0.6488  1.0000  -1.3128   0.0000   0.0000   0.0000   0.3758
   4.000   1.0667   0.00984   0.00459  -0.1374  0.6410  1.0000  -1.3490   0.0000   0.0000   0.0000   0.3720
   4.250   1.0935   0.00994   0.00468  -0.1372  0.6331  1.0000  -1.3885   0.0000   0.0000   0.0000   0.3684
   4.500   1.1202   0.01004   0.00476  -0.1371  0.6250  1.0000  -1.4294   0.0000   0.0000   0.0000   0.3649
   4.750   1.1465   0.01015   0.00485  -0.1368  0.6161  1.0000  -1.4716   0.0000   0.0000   0.0000   0.3615
   5.000   1.1724   0.01028   0.00497  -0.1365  0.6064  1.0000  -1.5166   0.0000   0.0000   0.0000   0.3583
   5.250   1.1978   0.01042   0.00510  -0.1361  0.5963  1.0000  -1.5635   0.0000   0.0000   0.0000   0.3551
   5.500   1.2228   0.01059   0.00526  -0.1356  0.5852  1.0000  -1.6126   0.0000   0.0000   0.0000   0.3521
   5.750   1.2473   0.01077   0.00543  -0.1351  0.5734  1.0000  -1.6666   0.0000   0.0000   0.0000   0.3491
   6.000   1.2712   0.01097   0.00561  -0.1345  0.5611  1.0000  -1.7282   0.0000   0.0000   0.0000   0.3462
   6.250   1.2945   0.01121   0.00582  -0.1337  0.5482  1.0000  -1.7964   0.0000   0.0000   0.0000   0.3434
   6.500   1.3169   0.01147   0.00606  -0.1328  0.5337  1.0000  -1.8708   0.0000   0.0000   0.0000   0.3406
   6.750   1.3384   0.01178   0.00633  -0.1318  0.5187  1.0000  -1.9465   0.0000   0.0000   0.0000   0.3378
   7.000   1.3588   0.01212   0.00663  -0.1306  0.5024  1.0000  -2.0245   0.0000   0.0000   0.0000   0.3351
   7.250   1.3777   0.01251   0.00697  -0.1292  0.4854  1.0000  -2.1039   0.0000   0.0000   0.0000   0.3323
   7.500   1.3950   0.01296   0.00736  -0.1275  0.4674  1.0000  -2.1821   0.0000   0.0000   0.0000   0.3296
   7.750   1.4109   0.01345   0.00779  -0.1256  0.4491  1.0000  -2.2603   0.0000   0.0000   0.0000   0.3268
   8.000   1.4237   0.01398   0.00826  -0.1231  0.4314  1.0000  -2.3339   0.0000   0.0000   0.0000   0.3239
   8.250   1.4360   0.01460   0.00882  -0.1208  0.4141  1.0000  -2.4246   0.0000   0.0000   0.0000   0.3211
   8.500   1.4478   0.01530   0.00946  -0.1184  0.3967  1.0000  -2.5238   0.0000   0.0000   0.0000   0.3184
   8.750   1.4597   0.01603   0.01015  -0.1162  0.3795  1.0000  -2.6246   0.0000   0.0000   0.0000   0.3158
   9.000   1.4709   0.01685   0.01092  -0.1141  0.3632  1.0000  -2.7245   0.0000   0.0000   0.0000   0.3133
   9.250   1.4816   0.01774   0.01176  -0.1119  0.3469  1.0000  -2.8244   0.0000   0.0000   0.0000   0.3109
   9.500   1.4924   0.01868   0.01266  -0.1099  0.3307  1.0000  -2.9253   0.0000   0.0000   0.0000   0.3086
   9.750   1.5018   0.01973   0.01367  -0.1078  0.3151  1.0000  -3.0249   0.0000   0.0000   0.0000   0.3063
  10.000   1.5118   0.02080   0.01470  -0.1059  0.2990  1.0000  -3.1291   0.0000   0.0000   0.0000   0.3041
  10.250   1.5205   0.02197   0.01583  -0.1039  0.2833  1.0000  -3.2307   0.0000   0.0000   0.0000   0.3019
  10.500   1.5283   0.02324   0.01705  -0.1019  0.2674  1.0000  -3.3306   0.0000   0.0000   0.0000   0.2998
  10.750   1.5361   0.02455   0.01832  -0.1000  0.2513  1.0000  -3.4313   0.0000   0.0000   0.0000   0.2978
  11.000   1.5425   0.02599   0.01970  -0.0980  0.2356  1.0000  -3.5284   0.0000   0.0000   0.0000   0.2957
  11.250   1.5485   0.02749   0.02115  -0.0961  0.2199  1.0000  -3.6250   0.0000   0.0000   0.0000   0.2938
  11.500   1.5542   0.02904   0.02266  -0.0942  0.2043  1.0000  -3.7213   0.0000   0.0000   0.0000   0.2919
  11.750   1.5584   0.03073   0.02430  -0.0923  0.1897  1.0000  -3.8136   0.0000   0.0000   0.0000   0.2900
  12.000   1.5630   0.03243   0.02595  -0.0905  0.1751  1.0000  -3.9076   0.0000   0.0000   0.0000   0.2881
  12.250   1.5666   0.03424   0.02773  -0.0887  0.1617  1.0000  -3.9986   0.0000   0.0000   0.0000   0.2864
  12.500   1.5704   0.03609   0.02955  -0.0870  0.1489  1.0000  -4.0905   0.0000   0.0000   0.0000   0.2846
  12.750   1.5732   0.03808   0.03150  -0.0854  0.1376  1.0000  -4.1794   0.0000   0.0000   0.0000   0.2830
  13.000   1.5771   0.04003   0.03344  -0.0839  0.1266  1.0000  -4.2730   0.0000   0.0000   0.0000   0.2814
  13.250   1.5799   0.04213   0.03552  -0.0824  0.1166  1.0000  -4.3656   0.0000   0.0000   0.0000   0.2799
  13.500   1.5821   0.04434   0.03772  -0.0810  0.1076  1.0000  -4.4560   0.0000   0.0000   0.0000   0.2784
  13.750   1.5838   0.04663   0.04002  -0.0797  0.0996  1.0000  -4.5449   0.0000   0.0000   0.0000   0.2769
  14.000   1.5855   0.04900   0.04239  -0.0785  0.0924  1.0000  -4.6334   0.0000   0.0000   0.0000   0.2756
  14.250   1.5871   0.05142   0.04483  -0.0774  0.0861  1.0000  -4.7218   0.0000   0.0000   0.0000   0.2743
  14.500   1.5886   0.05390   0.04734  -0.0763  0.0806  1.0000  -4.8093   0.0000   0.0000   0.0000   0.2730
  14.750   1.5893   0.05652   0.05000  -0.0754  0.0758  1.0000  -4.8939   0.0000   0.0000   0.0000   0.2719
  15.000   1.5883   0.05938   0.05287  -0.0745  0.0718  1.0000  -4.9715   0.0000   0.0000   0.0000   0.2708
  15.250   1.5895   0.06205   0.05561  -0.0737  0.0677  1.0000  -5.0570   0.0000   0.0000   0.0000   0.2697
  15.500   1.5892   0.06494   0.05855  -0.0731  0.0643  1.0000  -5.1363   0.0000   0.0000   0.0000   0.2687
  15.750   1.5868   0.06811   0.06175  -0.0725  0.0612  1.0000  -5.2108   0.0000   0.0000   0.0000   0.2678
  16.000   1.5871   0.07103   0.06476  -0.0720  0.0581  1.0000  -5.3010   0.0000   0.0000   0.0000   0.2670
  16.250   1.5828   0.07456   0.06831  -0.0716  0.0556  1.0000  -5.3797   0.0000   0.0000   0.0000   0.2663
  16.500   1.5828   0.07760   0.07145  -0.0714  0.0527  1.0000  -5.4773   0.0000   0.0000   0.0000   0.2655
  16.750   1.5780   0.08129   0.07518  -0.0712  0.0506  1.0000  -5.5532   0.0000   0.0000   0.0000   0.2650
  17.000   1.5766   0.08462   0.07860  -0.0712  0.0481  1.0000  -5.6463   0.0000   0.0000   0.0000   0.2644
  17.250   1.5709   0.08852   0.08256  -0.0713  0.0462  1.0000  -5.7174   0.0000   0.0000   0.0000   0.2640
  17.500   1.5687   0.09203   0.08616  -0.0715  0.0440  1.0000  -5.8043   0.0000   0.0000   0.0000   0.2636
  17.750   1.5618   0.09619   0.09035  -0.0719  0.0425  1.0000  -5.8672   0.0000   0.0000   0.0000   0.2634
  18.000   1.5596   0.09978   0.09406  -0.0723  0.0405  1.0000  -5.9507   0.0000   0.0000   0.0000   0.2631
  18.250   1.5540   0.10386   0.09817  -0.0730  0.0392  1.0000  -6.0174   0.0000   0.0000   0.0000   0.2631
  18.500   1.5508   0.10764   0.10205  -0.0736  0.0376  1.0000  -6.0922   0.0000   0.0000   0.0000   0.2630
  18.750   1.5475   0.11147   0.10594  -0.0745  0.0363  1.0000  -6.1678   0.0000   0.0000   0.0000   0.2630
  19.000   1.5428   0.11545   0.10995  -0.0755  0.0352  1.0000  -6.2345   0.0000   0.0000   0.0000   0.2632
  19.250   1.5412   0.11907   0.11369  -0.0765  0.0340  1.0000  -6.3140   0.0000   0.0000   0.0000   0.2632
  19.500   1.5393   0.12271   0.11739  -0.0776  0.0330  1.0000  -6.3936   0.0000   0.0000   0.0000   0.2634
  19.750   1.5375   0.12623   0.12089  -0.0787  0.0322  1.0000  -6.4744   0.0000   0.0000   0.0000   0.2635
  20.000   1.5369   0.12976   0.12456  -0.0800  0.0312  1.0000  -6.5553   0.0000   0.0000   0.0000   0.2637


