xflr5 v6.61

 Calculated polar for: QX0026  thickness=14.08

 1 1 Reynolds number fixed          Mach number fixed         

 xtrf =   1.000 (top)        1.000 (bottom)
 Mach =   0.000     Re =     0.240 e 6     Ncrit =   9.000

  alpha     CL        CD       CDp       Cm    Top Xtr Bot Xtr   Cpmin    Chinge    XCp    
 ------- -------- --------- --------- -------- ------- ------- -------- --------- ---------
  -9.500  -0.0910   0.09066   0.08718  -0.0936  0.9027  0.0625  -1.5502   0.0000   0.0000   0.0000  -0.8429
  -9.250  -0.0892   0.08737   0.08388  -0.0950  0.8984  0.0651  -1.5676   0.0000   0.0000   0.0000  -0.8787
  -9.000  -0.0956   0.08225   0.07878  -0.0986  0.8926  0.0669  -1.6758   0.0000   0.0000   0.0000  -0.8399
  -8.750  -0.0833   0.08041   0.07691  -0.0976  0.8889  0.0681  -1.5926   0.0000   0.0000   0.0000  -0.9859
  -8.500  -0.0801   0.07694   0.07345  -0.0997  0.8835  0.0706  -1.6097   0.0000   0.0000   0.0000  -1.0588
  -8.250  -0.0930   0.07062   0.06714  -0.1050  0.8783  0.0728  -1.7683   0.0000   0.0000   0.0000  -0.9338
  -8.000  -0.0791   0.06892   0.06545  -0.1042  0.8738  0.0740  -1.6765   0.0000   0.0000   0.0000  -1.1291
  -7.750  -0.0773   0.06518   0.06171  -0.1069  0.8688  0.0768  -1.6963   0.0000   0.0000   0.0000  -1.1930
  -7.500  -0.1262   0.05430   0.05055  -0.1289  0.8671  0.0792  -2.2053   0.0000   0.0000   0.0000  -0.8129
  -7.250  -0.1072   0.05382   0.05013  -0.1272  0.8627  0.0803  -2.0629   0.0000   0.0000   0.0000  -0.9823
  -7.000  -0.1056   0.04668   0.04261  -0.1349  0.8575  0.0864  -2.2014   0.0000   0.0000   0.0000  -1.0735
  -6.750  -0.0863   0.04520   0.04114  -0.1347  0.8538  0.0878  -2.0947   0.0000   0.0000   0.0000  -1.3643
  -6.500  -0.0754   0.04034   0.03585  -0.1383  0.8487  0.0940  -2.1520   0.0000   0.0000   0.0000  -1.6439
  -6.250  -0.0707   0.02214   0.01490  -0.1402  0.8453  0.0522  -2.9396   0.0000   0.0000   0.0000  -1.8042
  -6.000  -0.0460   0.02153   0.01425  -0.1401  0.8404  0.0541  -2.8063   0.0000   0.0000   0.0000  -2.9001
  -5.750  -0.0193   0.02062   0.01306  -0.1399  0.8371  0.0561  -2.6990   0.0000   0.0000   0.0000  -7.2305
  -5.500   0.0081   0.01989   0.01236  -0.1399  0.8347  0.0583  -2.5617   0.0000   0.0000   0.0000  18.1125
  -5.250   0.0335   0.01939   0.01170  -0.1396  0.8300  0.0610  -2.4500   0.0000   0.0000   0.0000   4.5410
  -5.000   0.0602   0.01878   0.01115  -0.1395  0.8266  0.0638  -2.3164   0.0000   0.0000   0.0000   2.6333
  -4.750   0.0882   0.01816   0.01047  -0.1395  0.8242  0.0674  -2.1950   0.0000   0.0000   0.0000   1.8749
  -4.500   0.1138   0.01784   0.01014  -0.1393  0.8197  0.0714  -2.0790   0.0000   0.0000   0.0000   1.5056
  -4.250   0.1406   0.01736   0.00971  -0.1392  0.8161  0.0760  -1.9582   0.0000   0.0000   0.0000   1.2639
  -4.000   0.1689   0.01688   0.00922  -0.1393  0.8136  0.0818  -1.8363   0.0000   0.0000   0.0000   1.0933
  -3.750   0.1947   0.01659   0.00898  -0.1391  0.8093  0.0889  -1.7241   0.0000   0.0000   0.0000   0.9797
  -3.500   0.2220   0.01624   0.00865  -0.1391  0.8056  0.0990  -1.6138   0.0000   0.0000   0.0000   0.8889
  -3.250   0.2507   0.01578   0.00825  -0.1392  0.8030  0.1140  -1.5005   0.0000   0.0000   0.0000   0.8155
  -3.000   0.2768   0.01552   0.00811  -0.1392  0.7986  0.1382  -1.3938   0.0000   0.0000   0.0000   0.7612
  -2.750   0.3044   0.01518   0.00793  -0.1393  0.7948  0.1768  -1.2853   0.0000   0.0000   0.0000   0.7145
  -2.500   0.3336   0.01481   0.00770  -0.1396  0.7923  0.2228  -1.1742   0.0000   0.0000   0.0000   0.6741
  -2.250   0.3597   0.01469   0.00774  -0.1396  0.7876  0.2693  -1.0699   0.0000   0.0000   0.0000   0.6427
  -2.000   0.3876   0.01443   0.00766  -0.1397  0.7839  0.3234  -0.9662   0.0000   0.0000   0.0000   0.6142
  -1.750   0.4168   0.01408   0.00749  -0.1400  0.7814  0.3907  -0.8635   0.0000   0.0000   0.0000   0.5886
  -1.500   0.4419   0.01395   0.00765  -0.1397  0.7762  0.4689  -0.7739   0.0000   0.0000   0.0000   0.5684
  -1.250   0.4693   0.01365   0.00762  -0.1395  0.7727  0.5599  -0.7822   0.0000   0.0000   0.0000   0.5488
  -1.000   0.4971   0.01336   0.00756  -0.1391  0.7703  0.6442  -0.8015   0.0000   0.0000   0.0000   0.5307
  -0.750   0.5199   0.01341   0.00780  -0.1380  0.7644  0.7104  -0.8175   0.0000   0.0000   0.0000   0.5159
  -0.500   0.5460   0.01322   0.00771  -0.1371  0.7613  0.7658  -0.8368   0.0000   0.0000   0.0000   0.5010
  -0.250   0.5685   0.01320   0.00780  -0.1357  0.7566  0.8139  -0.8539   0.0000   0.0000   0.0000   0.4881
   0.000   0.5905   0.01307   0.00775  -0.1339  0.7523  0.8617  -0.8719   0.0000   0.0000   0.0000   0.4757
   0.250   0.6150   0.01282   0.00751  -0.1323  0.7496  0.9158  -0.8924   0.0000   0.0000   0.0000   0.4637
   0.500   0.6529   0.01280   0.00752  -0.1344  0.7438  1.0000  -0.9196   0.0000   0.0000   0.0000   0.4540
   0.750   0.6845   0.01273   0.00733  -0.1351  0.7403  1.0000  -0.9447   0.0000   0.0000   0.0000   0.4452
   1.000   0.7120   0.01285   0.00739  -0.1353  0.7349  1.0000  -0.9680   0.0000   0.0000   0.0000   0.4374
   1.250   0.7422   0.01282   0.00726  -0.1357  0.7307  1.0000  -0.9941   0.0000   0.0000   0.0000   0.4299
   1.500   0.7706   0.01287   0.00727  -0.1359  0.7258  1.0000  -1.0194   0.0000   0.0000   0.0000   0.4231
   1.750   0.7996   0.01287   0.00720  -0.1361  0.7209  1.0000  -1.0463   0.0000   0.0000   0.0000   0.4166
   2.000   0.8284   0.01289   0.00717  -0.1363  0.7161  1.0000  -1.0743   0.0000   0.0000   0.0000   0.4105
   2.250   0.8569   0.01290   0.00714  -0.1364  0.7107  1.0000  -1.1028   0.0000   0.0000   0.0000   0.4048
   2.500   0.8852   0.01293   0.00713  -0.1365  0.7054  1.0000  -1.1318   0.0000   0.0000   0.0000   0.3995
   2.750   0.9142   0.01292   0.00706  -0.1366  0.7000  1.0000  -1.1627   0.0000   0.0000   0.0000   0.3944
   3.000   0.9413   0.01297   0.00711  -0.1365  0.6939  1.0000  -1.1933   0.0000   0.0000   0.0000   0.3897
   3.250   0.9714   0.01291   0.00699  -0.1368  0.6888  1.0000  -1.2271   0.0000   0.0000   0.0000   0.3851
   3.500   0.9975   0.01300   0.00708  -0.1365  0.6817  1.0000  -1.2593   0.0000   0.0000   0.0000   0.3808
   3.750   1.0259   0.01299   0.00705  -0.1365  0.6757  1.0000  -1.2961   0.0000   0.0000   0.0000   0.3767
   4.000   1.0540   0.01299   0.00702  -0.1365  0.6691  1.0000  -1.3334   0.0000   0.0000   0.0000   0.3728
   4.250   1.0801   0.01306   0.00710  -0.1362  0.6613  1.0000  -1.3715   0.0000   0.0000   0.0000   0.3691
   4.500   1.1072   0.01310   0.00713  -0.1360  0.6539  1.0000  -1.4124   0.0000   0.0000   0.0000   0.3655
   4.750   1.1350   0.01310   0.00711  -0.1359  0.6465  1.0000  -1.4560   0.0000   0.0000   0.0000   0.3621
   5.000   1.1618   0.01314   0.00714  -0.1357  0.6382  1.0000  -1.5009   0.0000   0.0000   0.0000   0.3587
   5.250   1.1871   0.01322   0.00723  -0.1352  0.6288  1.0000  -1.5476   0.0000   0.0000   0.0000   0.3555
   5.500   1.2124   0.01331   0.00731  -0.1347  0.6190  1.0000  -1.5961   0.0000   0.0000   0.0000   0.3524
   5.750   1.2375   0.01341   0.00741  -0.1342  0.6087  1.0000  -1.6503   0.0000   0.0000   0.0000   0.3493
   6.000   1.2623   0.01352   0.00752  -0.1336  0.5980  1.0000  -1.7111   0.0000   0.0000   0.0000   0.3464
   6.250   1.2857   0.01369   0.00769  -0.1328  0.5861  1.0000  -1.7773   0.0000   0.0000   0.0000   0.3435
   6.500   1.3083   0.01388   0.00789  -0.1319  0.5733  1.0000  -1.8508   0.0000   0.0000   0.0000   0.3406
   6.750   1.3309   0.01408   0.00809  -0.1310  0.5601  1.0000  -1.9273   0.0000   0.0000   0.0000   0.3378
   7.000   1.3528   0.01432   0.00830  -0.1300  0.5462  1.0000  -2.0064   0.0000   0.0000   0.0000   0.3351
   7.250   1.3728   0.01462   0.00859  -0.1287  0.5309  1.0000  -2.0862   0.0000   0.0000   0.0000   0.3324
   7.500   1.3922   0.01495   0.00889  -0.1273  0.5153  1.0000  -2.1672   0.0000   0.0000   0.0000   0.3297
   7.750   1.4098   0.01534   0.00924  -0.1256  0.4986  1.0000  -2.2478   0.0000   0.0000   0.0000   0.3269
   8.000   1.4256   0.01579   0.00966  -0.1236  0.4811  1.0000  -2.3266   0.0000   0.0000   0.0000   0.3242
   8.250   1.4393   0.01630   0.01012  -0.1213  0.4636  1.0000  -2.4167   0.0000   0.0000   0.0000   0.3214
   8.500   1.4504   0.01688   0.01063  -0.1186  0.4466  1.0000  -2.5145   0.0000   0.0000   0.0000   0.3185
   8.750   1.4609   0.01755   0.01126  -0.1160  0.4290  1.0000  -2.6114   0.0000   0.0000   0.0000   0.3157
   9.000   1.4708   0.01830   0.01197  -0.1134  0.4119  1.0000  -2.7079   0.0000   0.0000   0.0000   0.3130
   9.250   1.4798   0.01915   0.01276  -0.1109  0.3952  1.0000  -2.8032   0.0000   0.0000   0.0000   0.3104
   9.500   1.4886   0.02007   0.01365  -0.1085  0.3783  1.0000  -2.8983   0.0000   0.0000   0.0000   0.3078
   9.750   1.4969   0.02106   0.01462  -0.1061  0.3620  1.0000  -2.9931   0.0000   0.0000   0.0000   0.3054
  10.000   1.5043   0.02217   0.01567  -0.1037  0.3460  1.0000  -3.0872   0.0000   0.0000   0.0000   0.3030
  10.250   1.5118   0.02331   0.01681  -0.1015  0.3298  1.0000  -3.1846   0.0000   0.0000   0.0000   0.3008
  10.500   1.5182   0.02458   0.01804  -0.0993  0.3142  1.0000  -3.2794   0.0000   0.0000   0.0000   0.2986
  10.750   1.5244   0.02591   0.01935  -0.0971  0.2983  1.0000  -3.3742   0.0000   0.0000   0.0000   0.2964
  11.000   1.5299   0.02734   0.02075  -0.0950  0.2828  1.0000  -3.4675   0.0000   0.0000   0.0000   0.2943
  11.250   1.5344   0.02888   0.02225  -0.0929  0.2676  1.0000  -3.5585   0.0000   0.0000   0.0000   0.2923
  11.500   1.5389   0.03046   0.02383  -0.0909  0.2522  1.0000  -3.6497   0.0000   0.0000   0.0000   0.2903
  11.750   1.5415   0.03223   0.02555  -0.0888  0.2375  1.0000  -3.7356   0.0000   0.0000   0.0000   0.2884
  12.000   1.5448   0.03400   0.02731  -0.0869  0.2220  1.0000  -3.8238   0.0000   0.0000   0.0000   0.2866
  12.250   1.5462   0.03596   0.02923  -0.0850  0.2075  1.0000  -3.9062   0.0000   0.0000   0.0000   0.2847
  12.500   1.5475   0.03801   0.03125  -0.0832  0.1926  1.0000  -3.9883   0.0000   0.0000   0.0000   0.2830
  12.750   1.5483   0.04017   0.03338  -0.0815  0.1784  1.0000  -4.0688   0.0000   0.0000   0.0000   0.2814
  13.000   1.5481   0.04249   0.03566  -0.0799  0.1649  1.0000  -4.1460   0.0000   0.0000   0.0000   0.2798
  13.250   1.5484   0.04485   0.03801  -0.0784  0.1522  1.0000  -4.2255   0.0000   0.0000   0.0000   0.2783
  13.500   1.5482   0.04732   0.04045  -0.0770  0.1405  1.0000  -4.3052   0.0000   0.0000   0.0000   0.2769
  13.750   1.5472   0.04994   0.04305  -0.0756  0.1304  1.0000  -4.3814   0.0000   0.0000   0.0000   0.2755
  14.250   1.5453   0.05535   0.04846  -0.0733  0.1131  1.0000  -4.5322   0.0000   0.0000   0.0000   0.2730
  14.500   1.5438   0.05822   0.05133  -0.0723  0.1058  1.0000  -4.6049   0.0000   0.0000   0.0000   0.2719
  14.750   1.5430   0.06106   0.05420  -0.0715  0.0992  1.0000  -4.6795   0.0000   0.0000   0.0000   0.2708
  15.000   1.5424   0.06394   0.05712  -0.0707  0.0931  1.0000  -4.7539   0.0000   0.0000   0.0000   0.2697
  15.250   1.5412   0.06692   0.06015  -0.0700  0.0879  1.0000  -4.8255   0.0000   0.0000   0.0000   0.2688
  15.500   1.5386   0.07012   0.06337  -0.0694  0.0835  1.0000  -4.8912   0.0000   0.0000   0.0000   0.2679
  15.750   1.5371   0.07324   0.06654  -0.0689  0.0792  1.0000  -4.9623   0.0000   0.0000   0.0000   0.2671
  16.000   1.5358   0.07638   0.06974  -0.0686  0.0751  1.0000  -5.0345   0.0000   0.0000   0.0000   0.2663
  16.250   1.5322   0.07981   0.07316  -0.0682  0.0719  1.0000  -5.1002   0.0000   0.0000   0.0000   0.2656
  16.500   1.5320   0.08294   0.07641  -0.0681  0.0682  1.0000  -5.1894   0.0000   0.0000   0.0000   0.2649
  16.750   1.5293   0.08633   0.07982  -0.0680  0.0652  1.0000  -5.2685   0.0000   0.0000   0.0000   0.2643
  17.000   1.5279   0.08964   0.08321  -0.0680  0.0622  1.0000  -5.3523   0.0000   0.0000   0.0000   0.2638
  17.250   1.5260   0.09300   0.08662  -0.0681  0.0595  1.0000  -5.4320   0.0000   0.0000   0.0000   0.2633
  17.500   1.5245   0.09636   0.09003  -0.0683  0.0568  1.0000  -5.5169   0.0000   0.0000   0.0000   0.2629
  17.750   1.5232   0.09968   0.09341  -0.0685  0.0544  1.0000  -5.6007   0.0000   0.0000   0.0000   0.2625
  18.000   1.5223   0.10298   0.09676  -0.0690  0.0521  1.0000  -5.6880   0.0000   0.0000   0.0000   0.2622
  18.250   1.5219   0.10618   0.10002  -0.0693  0.0499  1.0000  -5.7748   0.0000   0.0000   0.0000   0.2618
  18.500   1.5219   0.10938   0.10327  -0.0699  0.0479  1.0000  -5.8639   0.0000   0.0000   0.0000   0.2615
  18.750   1.5238   0.11214   0.10604  -0.0702  0.0461  1.0000  -5.9637   0.0000   0.0000   0.0000   0.2610
  19.000   1.5241   0.11535   0.10937  -0.0709  0.0444  1.0000  -6.0491   0.0000   0.0000   0.0000   0.2609
  19.250   1.5289   0.11760   0.11157  -0.0712  0.0429  1.0000  -6.1689   0.0000   0.0000   0.0000   0.2603
  19.500   1.5294   0.12078   0.11488  -0.0720  0.0415  1.0000  -6.2518   0.0000   0.0000   0.0000   0.2601
  19.750   1.5316   0.12366   0.11785  -0.0728  0.0402  1.0000  -6.3488   0.0000   0.0000   0.0000   0.2599
  20.000   1.5416   0.12480   0.11887  -0.0726  0.0389  1.0000  -6.5060   0.0000   0.0000   0.0000   0.2588


