xflr5 v6.61

 Calculated polar for: QX0026  thickness=14.08

 1 1 Reynolds number fixed          Mach number fixed         

 xtrf =   1.000 (top)        1.000 (bottom)
 Mach =   0.000     Re =     0.840 e 6     Ncrit =   9.000

  alpha     CL        CD       CDp       Cm    Top Xtr Bot Xtr   Cpmin    Chinge    XCp    
 ------- -------- --------- --------- -------- ------- ------- -------- --------- ---------
 -10.000  -0.4944   0.01823   0.01300  -0.1305  0.8182  0.0216  -6.4255   0.0000   0.0000   0.0000  -0.0331
  -9.750  -0.4684   0.01767   0.01236  -0.1306  0.8151  0.0220  -6.1895   0.0000   0.0000   0.0000  -0.0483
  -9.500  -0.4424   0.01706   0.01162  -0.1308  0.8122  0.0225  -5.9664   0.0000   0.0000   0.0000  -0.0654
  -9.250  -0.4158   0.01646   0.01087  -0.1310  0.8089  0.0230  -5.7486   0.0000   0.0000   0.0000  -0.0850
  -9.000  -0.3901   0.01573   0.01012  -0.1311  0.8057  0.0234  -5.5272   0.0000   0.0000   0.0000  -0.1066
  -8.750  -0.3631   0.01531   0.00967  -0.1313  0.8030  0.0239  -5.2938   0.0000   0.0000   0.0000  -0.1327
  -8.500  -0.3358   0.01489   0.00918  -0.1315  0.8000  0.0245  -5.0689   0.0000   0.0000   0.0000  -0.1634
  -8.250  -0.3084   0.01444   0.00862  -0.1316  0.7967  0.0252  -4.8633   0.0000   0.0000   0.0000  -0.1997
  -8.000  -0.2816   0.01386   0.00800  -0.1318  0.7938  0.0257  -4.6619   0.0000   0.0000   0.0000  -0.2420
  -7.750  -0.2540   0.01348   0.00759  -0.1320  0.7912  0.0263  -4.4518   0.0000   0.0000   0.0000  -0.2948
  -7.500  -0.2261   0.01312   0.00720  -0.1322  0.7880  0.0271  -4.2485   0.0000   0.0000   0.0000  -0.3617
  -7.250  -0.1981   0.01276   0.00675  -0.1323  0.7850  0.0279  -4.0618   0.0000   0.0000   0.0000  -0.4476
  -7.000  -0.1705   0.01234   0.00633  -0.1325  0.7822  0.0287  -3.8709   0.0000   0.0000   0.0000  -0.5602
  -6.750  -0.1423   0.01205   0.00600  -0.1327  0.7795  0.0296  -3.6838   0.0000   0.0000   0.0000  -0.7204
  -6.500  -0.1140   0.01171   0.00561  -0.1329  0.7763  0.0306  -3.5043   0.0000   0.0000   0.0000  -0.9602
  -6.250  -0.0859   0.01138   0.00528  -0.1331  0.7733  0.0317  -3.3294   0.0000   0.0000   0.0000  -1.3564
  -6.000  -0.0573   0.01117   0.00499  -0.1333  0.7707  0.0331  -3.1589   0.0000   0.0000   0.0000  -2.1582
  -5.750  -0.0290   0.01083   0.00467  -0.1336  0.7676  0.0344  -2.9919   0.0000   0.0000   0.0000  -4.5063
  -5.500  -0.0003   0.01061   0.00442  -0.1338  0.7645  0.0359  -2.8261   0.0000   0.0000   0.0000  -453.3881
  -5.250   0.0282   0.01033   0.00413  -0.1340  0.7617  0.0375  -2.6637   0.0000   0.0000   0.0000   5.1348
  -5.000   0.0571   0.01017   0.00392  -0.1342  0.7590  0.0395  -2.5093   0.0000   0.0000   0.0000   2.6646
  -4.750   0.0858   0.00991   0.00368  -0.1345  0.7557  0.0417  -2.3588   0.0000   0.0000   0.0000   1.8586
  -4.500   0.1146   0.00970   0.00345  -0.1347  0.7526  0.0441  -2.2119   0.0000   0.0000   0.0000   1.4540
  -4.250   0.1436   0.00955   0.00327  -0.1349  0.7499  0.0469  -2.0654   0.0000   0.0000   0.0000   1.2111
  -4.000   0.1724   0.00935   0.00309  -0.1352  0.7466  0.0504  -1.9225   0.0000   0.0000   0.0000   1.0506
  -3.750   0.2013   0.00916   0.00291  -0.1354  0.7432  0.0547  -1.7873   0.0000   0.0000   0.0000   0.9358
  -3.500   0.2303   0.00900   0.00275  -0.1357  0.7403  0.0606  -1.6566   0.0000   0.0000   0.0000   0.8496
  -3.250   0.2592   0.00882   0.00260  -0.1359  0.7371  0.0693  -1.5284   0.0000   0.0000   0.0000   0.7829
  -3.000   0.2881   0.00863   0.00247  -0.1362  0.7335  0.0832  -1.4026   0.0000   0.0000   0.0000   0.7296
  -2.750   0.3171   0.00844   0.00235  -0.1365  0.7302  0.1041  -1.2807   0.0000   0.0000   0.0000   0.6860
  -2.500   0.3460   0.00827   0.00227  -0.1368  0.7268  0.1302  -1.1650   0.0000   0.0000   0.0000   0.6498
  -2.250   0.3749   0.00811   0.00220  -0.1371  0.7229  0.1583  -1.0516   0.0000   0.0000   0.0000   0.6192
  -2.000   0.4038   0.00798   0.00213  -0.1373  0.7196  0.1872  -0.9428   0.0000   0.0000   0.0000   0.5928
  -1.750   0.4327   0.00785   0.00208  -0.1376  0.7158  0.2163  -0.8396   0.0000   0.0000   0.0000   0.5700
  -1.500   0.4616   0.00771   0.00204  -0.1379  0.7118  0.2510  -0.7889   0.0000   0.0000   0.0000   0.5501
  -1.250   0.4906   0.00760   0.00200  -0.1382  0.7084  0.2879  -0.8074   0.0000   0.0000   0.0000   0.5325
  -1.000   0.5194   0.00743   0.00199  -0.1385  0.7040  0.3354  -0.8259   0.0000   0.0000   0.0000   0.5169
  -0.750   0.5481   0.00727   0.00197  -0.1388  0.7000  0.3917  -0.8453   0.0000   0.0000   0.0000   0.5029
  -0.500   0.5767   0.00710   0.00198  -0.1391  0.6960  0.4592  -0.8655   0.0000   0.0000   0.0000   0.4904
  -0.250   0.6053   0.00692   0.00200  -0.1393  0.6915  0.5344  -0.8858   0.0000   0.0000   0.0000   0.4790
   0.000   0.6338   0.00681   0.00202  -0.1395  0.6875  0.5949  -0.9069   0.0000   0.0000   0.0000   0.4685
   0.250   0.6620   0.00669   0.00208  -0.1396  0.6825  0.6554  -0.9290   0.0000   0.0000   0.0000   0.4589
   0.500   0.6903   0.00666   0.00211  -0.1396  0.6782  0.7002  -0.9516   0.0000   0.0000   0.0000   0.4500
   0.750   0.7185   0.00661   0.00216  -0.1397  0.6731  0.7364  -0.9746   0.0000   0.0000   0.0000   0.4417
   1.000   0.7464   0.00659   0.00219  -0.1396  0.6684  0.7696  -0.9987   0.0000   0.0000   0.0000   0.4340
   1.250   0.7740   0.00655   0.00224  -0.1395  0.6629  0.8009  -1.0235   0.0000   0.0000   0.0000   0.4269
   1.750   0.8271   0.00649   0.00234  -0.1388  0.6520  0.8698  -1.0737   0.0000   0.0000   0.0000   0.4137
   2.000   0.8507   0.00644   0.00237  -0.1376  0.6466  0.9182  -1.0989   0.0000   0.0000   0.0000   0.4075
   2.250   0.8823   0.00638   0.00236  -0.1383  0.6402  1.0000  -1.1297   0.0000   0.0000   0.0000   0.4021
   2.500   0.9109   0.00646   0.00241  -0.1385  0.6338  1.0000  -1.1590   0.0000   0.0000   0.0000   0.3971
   2.750   0.9390   0.00656   0.00246  -0.1387  0.6276  1.0000  -1.1896   0.0000   0.0000   0.0000   0.3924
   3.000   0.9673   0.00664   0.00252  -0.1388  0.6202  1.0000  -1.2215   0.0000   0.0000   0.0000   0.3879
   3.250   0.9953   0.00673   0.00260  -0.1389  0.6127  1.0000  -1.2538   0.0000   0.0000   0.0000   0.3837
   3.500   1.0230   0.00685   0.00267  -0.1390  0.6049  1.0000  -1.2880   0.0000   0.0000   0.0000   0.3796
   3.750   1.0504   0.00697   0.00276  -0.1390  0.5963  1.0000  -1.3245   0.0000   0.0000   0.0000   0.3757
   4.000   1.0776   0.00710   0.00286  -0.1389  0.5868  1.0000  -1.3612   0.0000   0.0000   0.0000   0.3720
   4.250   1.1045   0.00724   0.00297  -0.1388  0.5769  1.0000  -1.4015   0.0000   0.0000   0.0000   0.3685
   4.500   1.1312   0.00739   0.00309  -0.1387  0.5663  1.0000  -1.4429   0.0000   0.0000   0.0000   0.3651
   4.750   1.1576   0.00756   0.00322  -0.1386  0.5545  1.0000  -1.4851   0.0000   0.0000   0.0000   0.3618
   5.000   1.1835   0.00775   0.00337  -0.1383  0.5420  1.0000  -1.5312   0.0000   0.0000   0.0000   0.3586
   5.250   1.2088   0.00797   0.00354  -0.1380  0.5289  1.0000  -1.5781   0.0000   0.0000   0.0000   0.3556
   5.500   1.2337   0.00820   0.00372  -0.1376  0.5142  1.0000  -1.6284   0.0000   0.0000   0.0000   0.3526
   5.750   1.2578   0.00847   0.00393  -0.1370  0.4983  1.0000  -1.6827   0.0000   0.0000   0.0000   0.3497
   6.000   1.2815   0.00876   0.00416  -0.1364  0.4819  1.0000  -1.7456   0.0000   0.0000   0.0000   0.3468
   6.250   1.3041   0.00910   0.00442  -0.1356  0.4642  1.0000  -1.8159   0.0000   0.0000   0.0000   0.3440
   6.500   1.3258   0.00947   0.00471  -0.1347  0.4456  1.0000  -1.8898   0.0000   0.0000   0.0000   0.3413
   6.750   1.3466   0.00988   0.00502  -0.1336  0.4263  1.0000  -1.9659   0.0000   0.0000   0.0000   0.3385
   7.000   1.3670   0.01029   0.00536  -0.1325  0.4071  1.0000  -2.0467   0.0000   0.0000   0.0000   0.3359
   7.250   1.3865   0.01073   0.00572  -0.1312  0.3882  1.0000  -2.1282   0.0000   0.0000   0.0000   0.3332
   7.500   1.4045   0.01119   0.00610  -0.1297  0.3696  1.0000  -2.2100   0.0000   0.0000   0.0000   0.3305
   7.750   1.4205   0.01167   0.00651  -0.1278  0.3528  1.0000  -2.2889   0.0000   0.0000   0.0000   0.3278
   8.000   1.4363   0.01219   0.00696  -0.1260  0.3364  1.0000  -2.3722   0.0000   0.0000   0.0000   0.3251
   8.250   1.4522   0.01274   0.00745  -0.1242  0.3202  1.0000  -2.4814   0.0000   0.0000   0.0000   0.3226
   8.500   1.4667   0.01337   0.00802  -0.1224  0.3036  1.0000  -2.5887   0.0000   0.0000   0.0000   0.3200
   8.750   1.4805   0.01407   0.00865  -0.1205  0.2866  1.0000  -2.6957   0.0000   0.0000   0.0000   0.3176
   9.000   1.4940   0.01482   0.00933  -0.1186  0.2693  1.0000  -2.8031   0.0000   0.0000   0.0000   0.3152
   9.250   1.5068   0.01564   0.01007  -0.1168  0.2526  1.0000  -2.9118   0.0000   0.0000   0.0000   0.3129
   9.500   1.5189   0.01653   0.01089  -0.1149  0.2366  1.0000  -3.0216   0.0000   0.0000   0.0000   0.3106
   9.750   1.5308   0.01746   0.01175  -0.1131  0.2204  1.0000  -3.1324   0.0000   0.0000   0.0000   0.3084
  10.000   1.5423   0.01844   0.01267  -0.1113  0.2051  1.0000  -3.2430   0.0000   0.0000   0.0000   0.3062
  10.500   1.5635   0.02058   0.01469  -0.1077  0.1764  1.0000  -3.4625   0.0000   0.0000   0.0000   0.3020
  10.750   1.5725   0.02178   0.01582  -0.1058  0.1625  1.0000  -3.5693   0.0000   0.0000   0.0000   0.3000
  11.000   1.5817   0.02300   0.01699  -0.1040  0.1490  1.0000  -3.6774   0.0000   0.0000   0.0000   0.2980
  11.250   1.5899   0.02430   0.01824  -0.1021  0.1366  1.0000  -3.7832   0.0000   0.0000   0.0000   0.2960
  11.500   1.5984   0.02561   0.01950  -0.1004  0.1251  1.0000  -3.8911   0.0000   0.0000   0.0000   0.2941
  11.750   1.6061   0.02698   0.02084  -0.0986  0.1148  1.0000  -3.9974   0.0000   0.0000   0.0000   0.2922
  12.000   1.6135   0.02841   0.02223  -0.0969  0.1054  1.0000  -4.1032   0.0000   0.0000   0.0000   0.2903
  12.250   1.6210   0.02985   0.02365  -0.0952  0.0968  1.0000  -4.2101   0.0000   0.0000   0.0000   0.2885
  12.500   1.6279   0.03134   0.02513  -0.0936  0.0889  1.0000  -4.3162   0.0000   0.0000   0.0000   0.2868
  12.750   1.6346   0.03290   0.02668  -0.0920  0.0818  1.0000  -4.4257   0.0000   0.0000   0.0000   0.2851
  13.000   1.6412   0.03451   0.02828  -0.0904  0.0756  1.0000  -4.5357   0.0000   0.0000   0.0000   0.2834
  13.250   1.6475   0.03617   0.02995  -0.0890  0.0701  1.0000  -4.6454   0.0000   0.0000   0.0000   0.2818
  13.500   1.6536   0.03790   0.03168  -0.0876  0.0652  1.0000  -4.7548   0.0000   0.0000   0.0000   0.2802
  13.750   1.6590   0.03971   0.03350  -0.0862  0.0608  1.0000  -4.8627   0.0000   0.0000   0.0000   0.2787
  14.000   1.6653   0.04149   0.03530  -0.0850  0.0569  1.0000  -4.9744   0.0000   0.0000   0.0000   0.2772
  14.250   1.6713   0.04334   0.03718  -0.0838  0.0535  1.0000  -5.0852   0.0000   0.0000   0.0000   0.2758
  14.500   1.6760   0.04533   0.03920  -0.0826  0.0505  1.0000  -5.1917   0.0000   0.0000   0.0000   0.2744
  14.750   1.6811   0.04733   0.04123  -0.0815  0.0476  1.0000  -5.3002   0.0000   0.0000   0.0000   0.2730
  15.000   1.6860   0.04938   0.04332  -0.0805  0.0451  1.0000  -5.4081   0.0000   0.0000   0.0000   0.2717
  15.250   1.6887   0.05169   0.04566  -0.0795  0.0426  1.0000  -5.5079   0.0000   0.0000   0.0000   0.2705
  15.500   1.6934   0.05383   0.04785  -0.0786  0.0403  1.0000  -5.6353   0.0000   0.0000   0.0000   0.2693
  15.750   1.6959   0.05624   0.05030  -0.0778  0.0382  1.0000  -5.7591   0.0000   0.0000   0.0000   0.2681
  16.000   1.6979   0.05874   0.05284  -0.0770  0.0360  1.0000  -5.8815   0.0000   0.0000   0.0000   0.2670
  16.250   1.6999   0.06127   0.05544  -0.0762  0.0340  1.0000  -6.0040   0.0000   0.0000   0.0000   0.2659
  16.500   1.6991   0.06416   0.05836  -0.0755  0.0321  1.0000  -6.1134   0.0000   0.0000   0.0000   0.2649
  16.750   1.7004   0.06687   0.06114  -0.0750  0.0302  1.0000  -6.2328   0.0000   0.0000   0.0000   0.2640
  17.000   1.6990   0.06992   0.06424  -0.0745  0.0286  1.0000  -6.3385   0.0000   0.0000   0.0000   0.2631
  17.250   1.6976   0.07302   0.06741  -0.0741  0.0272  1.0000  -6.4446   0.0000   0.0000   0.0000   0.2623
  17.500   1.6949   0.07634   0.07079  -0.0738  0.0260  1.0000  -6.5427   0.0000   0.0000   0.0000   0.2615
  17.750   1.6927   0.07963   0.07415  -0.0735  0.0249  1.0000  -6.6438   0.0000   0.0000   0.0000   0.2608
  18.000   1.6868   0.08346   0.07804  -0.0735  0.0240  1.0000  -6.7242   0.0000   0.0000   0.0000   0.2603
  18.250   1.6850   0.08680   0.08147  -0.0735  0.0232  1.0000  -6.8259   0.0000   0.0000   0.0000   0.2597
  18.500   1.6809   0.09047   0.08521  -0.0737  0.0224  1.0000  -6.9156   0.0000   0.0000   0.0000   0.2593
  18.750   1.6739   0.09459   0.08940  -0.0740  0.0218  1.0000  -6.9895   0.0000   0.0000   0.0000   0.2590
  19.000   1.6700   0.09835   0.09325  -0.0744  0.0212  1.0000  -7.0806   0.0000   0.0000   0.0000   0.2587
  19.250   1.6661   0.10212   0.09710  -0.0750  0.0206  1.0000  -7.1723   0.0000   0.0000   0.0000   0.2585
  19.500   1.6605   0.10617   0.10123  -0.0757  0.0201  1.0000  -7.2523   0.0000   0.0000   0.0000   0.2584
  19.750   1.6526   0.11063   0.10577  -0.0767  0.0197  1.0000  -7.3150   0.0000   0.0000   0.0000   0.2586
  20.000   1.6462   0.11491   0.11014  -0.0778  0.0193  1.0000  -7.3848   0.0000   0.0000   0.0000   0.2588


