xflr5 v6.61

 Calculated polar for: QX0026  thickness=14.08

 1 1 Reynolds number fixed          Mach number fixed         

 xtrf =   1.000 (top)        1.000 (bottom)
 Mach =   0.000     Re =     0.740 e 6     Ncrit =   9.000

  alpha     CL        CD       CDp       Cm    Top Xtr Bot Xtr   Cpmin    Chinge    XCp    
 ------- -------- --------- --------- -------- ------- ------- -------- --------- ---------
 -10.000  -0.2618   0.07722   0.07460  -0.0829  0.8328  0.0237  -3.0646   0.0000   0.0000   0.0000  -0.0957
  -9.750  -0.2420   0.07723   0.07460  -0.0834  0.8289  0.0259  -2.8196   0.0000   0.0000   0.0000  -0.1246
  -9.250  -0.4123   0.01762   0.01209  -0.1314  0.8153  0.0238  -5.6668   0.0000   0.0000   0.0000  -0.0888
  -9.000  -0.3860   0.01706   0.01143  -0.1315  0.8125  0.0243  -5.4456   0.0000   0.0000   0.0000  -0.1114
  -8.750  -0.3594   0.01646   0.01072  -0.1317  0.8092  0.0250  -5.2333   0.0000   0.0000   0.0000  -0.1377
  -8.500  -0.3330   0.01579   0.00994  -0.1318  0.8060  0.0256  -5.0254   0.0000   0.0000   0.0000  -0.1679
  -8.250  -0.3062   0.01529   0.00943  -0.1320  0.8032  0.0261  -4.8102   0.0000   0.0000   0.0000  -0.2040
  -8.000  -0.2789   0.01485   0.00893  -0.1321  0.8003  0.0267  -4.6056   0.0000   0.0000   0.0000  -0.2479
  -7.750  -0.2514   0.01438   0.00837  -0.1323  0.7970  0.0275  -4.4098   0.0000   0.0000   0.0000  -0.3018
  -7.500  -0.2243   0.01385   0.00778  -0.1324  0.7941  0.0282  -4.2152   0.0000   0.0000   0.0000  -0.3680
  -7.250  -0.1966   0.01350   0.00740  -0.1326  0.7915  0.0290  -4.0197   0.0000   0.0000   0.0000  -0.4546
  -7.000  -0.1686   0.01313   0.00699  -0.1328  0.7883  0.0299  -3.8366   0.0000   0.0000   0.0000  -0.5708
  -6.750  -0.1409   0.01267   0.00649  -0.1330  0.7851  0.0308  -3.6596   0.0000   0.0000   0.0000  -0.7314
  -6.500  -0.1129   0.01233   0.00613  -0.1331  0.7824  0.0318  -3.4752   0.0000   0.0000   0.0000  -0.9741
  -6.250  -0.0845   0.01207   0.00580  -0.1333  0.7796  0.0331  -3.3045   0.0000   0.0000   0.0000  -1.3846
  -6.000  -0.0566   0.01168   0.00543  -0.1335  0.7764  0.0343  -3.1375   0.0000   0.0000   0.0000  -2.1916
  -5.750  -0.0281   0.01142   0.00513  -0.1337  0.7734  0.0358  -2.9719   0.0000   0.0000   0.0000  -4.6658
  -5.500   0.0002   0.01111   0.00478  -0.1339  0.7708  0.0373  -2.8106   0.0000   0.0000   0.0000  561.7537
  -5.250   0.0288   0.01089   0.00454  -0.1342  0.7676  0.0391  -2.6485   0.0000   0.0000   0.0000   5.0374
  -5.000   0.0573   0.01060   0.00426  -0.1344  0.7644  0.0411  -2.4962   0.0000   0.0000   0.0000   2.6586
  -4.750   0.0862   0.01041   0.00402  -0.1346  0.7616  0.0433  -2.3484   0.0000   0.0000   0.0000   1.8524
  -4.500   0.1149   0.01018   0.00378  -0.1348  0.7588  0.0459  -2.2015   0.0000   0.0000   0.0000   1.4526
  -4.250   0.1436   0.00995   0.00357  -0.1351  0.7554  0.0489  -2.0579   0.0000   0.0000   0.0000   1.2123
  -4.000   0.1724   0.00975   0.00336  -0.1353  0.7523  0.0525  -1.9166   0.0000   0.0000   0.0000   1.0513
  -3.750   0.2014   0.00958   0.00317  -0.1356  0.7496  0.0571  -1.7822   0.0000   0.0000   0.0000   0.9362
  -3.500   0.2302   0.00938   0.00301  -0.1358  0.7460  0.0634  -1.6528   0.0000   0.0000   0.0000   0.8506
  -3.250   0.2591   0.00919   0.00285  -0.1360  0.7426  0.0727  -1.5257   0.0000   0.0000   0.0000   0.7837
  -3.000   0.2880   0.00900   0.00269  -0.1363  0.7397  0.0878  -1.4005   0.0000   0.0000   0.0000   0.7302
  -2.750   0.3168   0.00880   0.00259  -0.1366  0.7361  0.1107  -1.2798   0.0000   0.0000   0.0000   0.6868
  -2.500   0.3456   0.00861   0.00249  -0.1369  0.7325  0.1386  -1.1645   0.0000   0.0000   0.0000   0.6506
  -2.250   0.3746   0.00846   0.00241  -0.1372  0.7293  0.1683  -1.0511   0.0000   0.0000   0.0000   0.6197
  -2.000   0.4034   0.00831   0.00236  -0.1374  0.7255  0.1979  -0.9430   0.0000   0.0000   0.0000   0.5934
  -1.750   0.4322   0.00817   0.00230  -0.1377  0.7216  0.2298  -0.8400   0.0000   0.0000   0.0000   0.5706
  -1.500   0.4612   0.00805   0.00225  -0.1380  0.7184  0.2660  -0.7883   0.0000   0.0000   0.0000   0.5506
  -1.250   0.4899   0.00788   0.00223  -0.1383  0.7140  0.3080  -0.8065   0.0000   0.0000   0.0000   0.5330
  -1.000   0.5187   0.00772   0.00220  -0.1386  0.7102  0.3595  -0.8251   0.0000   0.0000   0.0000   0.5174
  -0.750   0.5473   0.00755   0.00219  -0.1388  0.7064  0.4230  -0.8445   0.0000   0.0000   0.0000   0.5034
  -0.500   0.5758   0.00735   0.00220  -0.1391  0.7019  0.4957  -0.8646   0.0000   0.0000   0.0000   0.4909
  -0.250   0.6043   0.00721   0.00221  -0.1393  0.6982  0.5667  -0.8850   0.0000   0.0000   0.0000   0.4793
   0.000   0.6325   0.00707   0.00226  -0.1394  0.6935  0.6274  -0.9058   0.0000   0.0000   0.0000   0.4688
   0.250   0.6607   0.00699   0.00230  -0.1394  0.6892  0.6833  -0.9279   0.0000   0.0000   0.0000   0.4591
   0.500   0.6888   0.00694   0.00234  -0.1394  0.6844  0.7237  -0.9504   0.0000   0.0000   0.0000   0.4501
   0.750   0.7166   0.00690   0.00237  -0.1393  0.6797  0.7589  -0.9732   0.0000   0.0000   0.0000   0.4418
   1.000   0.7442   0.00687   0.00242  -0.1392  0.6749  0.7919  -0.9971   0.0000   0.0000   0.0000   0.4341
   1.250   0.7712   0.00683   0.00245  -0.1389  0.6697  0.8254  -1.0216   0.0000   0.0000   0.0000   0.4268
   1.500   0.7974   0.00679   0.00250  -0.1384  0.6645  0.8606  -1.0459   0.0000   0.0000   0.0000   0.4200
   1.750   0.8215   0.00674   0.00253  -0.1374  0.6592  0.9044  -1.0700   0.0000   0.0000   0.0000   0.4133
   2.000   0.8499   0.00665   0.00252  -0.1373  0.6534  0.9729  -1.0982   0.0000   0.0000   0.0000   0.4073
   2.500   0.9095   0.00678   0.00258  -0.1383  0.6411  1.0000  -1.1578   0.0000   0.0000   0.0000   0.3971
   2.750   0.9377   0.00687   0.00264  -0.1384  0.6348  1.0000  -1.1884   0.0000   0.0000   0.0000   0.3923
   3.000   0.9657   0.00696   0.00269  -0.1385  0.6281  1.0000  -1.2201   0.0000   0.0000   0.0000   0.3878
   3.250   0.9938   0.00705   0.00277  -0.1386  0.6206  1.0000  -1.2523   0.0000   0.0000   0.0000   0.3836
   3.500   1.0215   0.00715   0.00284  -0.1387  0.6129  1.0000  -1.2865   0.0000   0.0000   0.0000   0.3795
   3.750   1.0489   0.00727   0.00293  -0.1387  0.6049  1.0000  -1.3230   0.0000   0.0000   0.0000   0.3757
   4.000   1.0761   0.00739   0.00302  -0.1386  0.5960  1.0000  -1.3598   0.0000   0.0000   0.0000   0.3719
   4.250   1.1029   0.00753   0.00313  -0.1385  0.5863  1.0000  -1.3999   0.0000   0.0000   0.0000   0.3684
   4.500   1.1296   0.00768   0.00325  -0.1384  0.5763  1.0000  -1.4411   0.0000   0.0000   0.0000   0.3650
   4.750   1.1559   0.00784   0.00338  -0.1382  0.5652  1.0000  -1.4833   0.0000   0.0000   0.0000   0.3617
   5.000   1.1819   0.00802   0.00352  -0.1380  0.5532  1.0000  -1.5293   0.0000   0.0000   0.0000   0.3585
   5.250   1.2073   0.00822   0.00368  -0.1376  0.5406  1.0000  -1.5763   0.0000   0.0000   0.0000   0.3554
   5.500   1.2320   0.00846   0.00387  -0.1372  0.5271  1.0000  -1.6261   0.0000   0.0000   0.0000   0.3524
   5.750   1.2565   0.00870   0.00407  -0.1367  0.5118  1.0000  -1.6806   0.0000   0.0000   0.0000   0.3495
   6.000   1.2799   0.00899   0.00430  -0.1360  0.4962  1.0000  -1.7431   0.0000   0.0000   0.0000   0.3467
   6.250   1.3028   0.00930   0.00455  -0.1353  0.4790  1.0000  -1.8133   0.0000   0.0000   0.0000   0.3439
   6.500   1.3246   0.00965   0.00483  -0.1344  0.4609  1.0000  -1.8875   0.0000   0.0000   0.0000   0.3411
   6.750   1.3455   0.01005   0.00514  -0.1333  0.4421  1.0000  -1.9634   0.0000   0.0000   0.0000   0.3384
   7.000   1.3653   0.01048   0.00549  -0.1321  0.4229  1.0000  -2.0430   0.0000   0.0000   0.0000   0.3357
   7.250   1.3843   0.01093   0.00586  -0.1307  0.4043  1.0000  -2.1231   0.0000   0.0000   0.0000   0.3330
   7.500   1.4015   0.01141   0.00626  -0.1291  0.3857  1.0000  -2.2033   0.0000   0.0000   0.0000   0.3303
   7.750   1.4172   0.01190   0.00668  -0.1271  0.3678  1.0000  -2.2818   0.0000   0.0000   0.0000   0.3275
   8.000   1.4330   0.01242   0.00714  -0.1253  0.3512  1.0000  -2.3622   0.0000   0.0000   0.0000   0.3248
   8.250   1.4478   0.01302   0.00767  -0.1234  0.3350  1.0000  -2.4686   0.0000   0.0000   0.0000   0.3222
   8.500   1.4629   0.01363   0.00822  -0.1216  0.3186  1.0000  -2.5771   0.0000   0.0000   0.0000   0.3197
   8.750   1.4768   0.01433   0.00886  -0.1198  0.3021  1.0000  -2.6840   0.0000   0.0000   0.0000   0.3173
   9.000   1.4896   0.01512   0.00957  -0.1178  0.2854  1.0000  -2.7894   0.0000   0.0000   0.0000   0.3149
   9.250   1.5024   0.01594   0.01033  -0.1160  0.2681  1.0000  -2.8966   0.0000   0.0000   0.0000   0.3126
   9.500   1.5146   0.01683   0.01115  -0.1142  0.2515  1.0000  -3.0065   0.0000   0.0000   0.0000   0.3103
   9.750   1.5260   0.01780   0.01205  -0.1123  0.2354  1.0000  -3.1153   0.0000   0.0000   0.0000   0.3081
  10.000   1.5367   0.01883   0.01301  -0.1104  0.2193  1.0000  -3.2236   0.0000   0.0000   0.0000   0.3059
  10.250   1.5476   0.01988   0.01400  -0.1086  0.2039  1.0000  -3.3332   0.0000   0.0000   0.0000   0.3038
  10.500   1.5573   0.02102   0.01509  -0.1068  0.1897  1.0000  -3.4406   0.0000   0.0000   0.0000   0.3017
  10.750   1.5669   0.02219   0.01620  -0.1050  0.1751  1.0000  -3.5487   0.0000   0.0000   0.0000   0.2997
  11.000   1.5754   0.02347   0.01742  -0.1031  0.1614  1.0000  -3.6542   0.0000   0.0000   0.0000   0.2977
  11.250   1.5835   0.02479   0.01868  -0.1013  0.1482  1.0000  -3.7596   0.0000   0.0000   0.0000   0.2957
  11.500   1.5911   0.02616   0.02001  -0.0995  0.1359  1.0000  -3.8640   0.0000   0.0000   0.0000   0.2938
  11.750   1.5987   0.02756   0.02137  -0.0977  0.1246  1.0000  -3.9694   0.0000   0.0000   0.0000   0.2919
  12.000   1.6054   0.02904   0.02281  -0.0959  0.1144  1.0000  -4.0728   0.0000   0.0000   0.0000   0.2900
  12.250   1.6122   0.03055   0.02429  -0.0942  0.1051  1.0000  -4.1767   0.0000   0.0000   0.0000   0.2882
  12.500   1.6188   0.03209   0.02582  -0.0926  0.0966  1.0000  -4.2809   0.0000   0.0000   0.0000   0.2865
  12.750   1.6251   0.03369   0.02741  -0.0910  0.0888  1.0000  -4.3876   0.0000   0.0000   0.0000   0.2848
  13.000   1.6311   0.03536   0.02907  -0.0894  0.0819  1.0000  -4.4950   0.0000   0.0000   0.0000   0.2831
  13.250   1.6369   0.03708   0.03080  -0.0880  0.0757  1.0000  -4.6023   0.0000   0.0000   0.0000   0.2815
  13.500   1.6425   0.03887   0.03259  -0.0866  0.0704  1.0000  -4.7092   0.0000   0.0000   0.0000   0.2799
  13.750   1.6476   0.04074   0.03447  -0.0852  0.0656  1.0000  -4.8149   0.0000   0.0000   0.0000   0.2784
  14.000   1.6526   0.04266   0.03640  -0.0840  0.0613  1.0000  -4.9207   0.0000   0.0000   0.0000   0.2770
  14.250   1.6582   0.04457   0.03834  -0.0828  0.0574  1.0000  -5.0293   0.0000   0.0000   0.0000   0.2756
  14.500   1.6629   0.04659   0.04039  -0.0817  0.0541  1.0000  -5.1349   0.0000   0.0000   0.0000   0.2742
  15.000   1.6712   0.05086   0.04473  -0.0796  0.0483  1.0000  -5.3428   0.0000   0.0000   0.0000   0.2716
  15.250   1.6743   0.05315   0.04707  -0.0786  0.0458  1.0000  -5.4429   0.0000   0.0000   0.0000   0.2704
  15.500   1.6771   0.05552   0.04948  -0.0777  0.0433  1.0000  -5.5524   0.0000   0.0000   0.0000   0.2692
  15.750   1.6801   0.05792   0.05193  -0.0769  0.0410  1.0000  -5.6771   0.0000   0.0000   0.0000   0.2680
  16.250   1.6827   0.06317   0.05728  -0.0755  0.0367  1.0000  -5.9125   0.0000   0.0000   0.0000   0.2659
  16.500   1.6823   0.06607   0.06023  -0.0749  0.0348  1.0000  -6.0218   0.0000   0.0000   0.0000   0.2650
  16.750   1.6820   0.06898   0.06320  -0.0744  0.0329  1.0000  -6.1319   0.0000   0.0000   0.0000   0.2641
  17.000   1.6808   0.07205   0.06633  -0.0739  0.0311  1.0000  -6.2372   0.0000   0.0000   0.0000   0.2632
  17.250   1.6780   0.07538   0.06972  -0.0736  0.0296  1.0000  -6.3343   0.0000   0.0000   0.0000   0.2625
  17.500   1.6758   0.07867   0.07309  -0.0734  0.0282  1.0000  -6.4328   0.0000   0.0000   0.0000   0.2618
  17.750   1.6721   0.08220   0.07668  -0.0732  0.0271  1.0000  -6.5240   0.0000   0.0000   0.0000   0.2612
  18.000   1.6671   0.08596   0.08052  -0.0733  0.0261  1.0000  -6.6067   0.0000   0.0000   0.0000   0.2607
  18.250   1.6639   0.08953   0.08417  -0.0734  0.0251  1.0000  -6.6988   0.0000   0.0000   0.0000   0.2602
  18.500   1.6579   0.09351   0.08822  -0.0737  0.0244  1.0000  -6.7751   0.0000   0.0000   0.0000   0.2599
  18.750   1.6515   0.09763   0.09242  -0.0741  0.0237  1.0000  -6.8463   0.0000   0.0000   0.0000   0.2597
  19.000   1.6479   0.10138   0.09627  -0.0747  0.0230  1.0000  -6.9351   0.0000   0.0000   0.0000   0.2595
  19.250   1.6427   0.10540   0.10036  -0.0754  0.0224  1.0000  -7.0154   0.0000   0.0000   0.0000   0.2594
  19.500   1.6349   0.10983   0.10487  -0.0763  0.0219  1.0000  -7.0784   0.0000   0.0000   0.0000   0.2595
  19.750   1.6287   0.11411   0.10924  -0.0774  0.0214  1.0000  -7.1475   0.0000   0.0000   0.0000   0.2597
  20.000   1.6249   0.11803   0.11325  -0.0785  0.0209  1.0000  -7.2304   0.0000   0.0000   0.0000   0.2598


