xflr5 v6.61

 Calculated polar for: QX0026  thickness=14.08

 1 1 Reynolds number fixed          Mach number fixed         

 xtrf =   1.000 (top)        1.000 (bottom)
 Mach =   0.000     Re =     0.160 e 6     Ncrit =   9.000

  alpha     CL        CD       CDp       Cm    Top Xtr Bot Xtr   Cpmin    Chinge    XCp    
 ------- -------- --------- --------- -------- ------- ------- -------- --------- ---------
  -9.500  -0.1089   0.09568   0.09159  -0.0987  0.9560  0.0837  -1.5332   0.0000   0.0000   0.0000  -0.7185
  -9.250  -0.1081   0.09107   0.08700  -0.1044  0.9506  0.0862  -1.6218   0.0000   0.0000   0.0000  -0.7768
  -9.000  -0.0904   0.08880   0.08471  -0.1041  0.9460  0.0882  -1.5327   0.0000   0.0000   0.0000  -0.9730
  -8.750  -0.1150   0.08380   0.07976  -0.1140  0.9350  0.0929  -1.7811   0.0000   0.0000   0.0000  -0.7950
  -8.500  -0.0829   0.08207   0.07799  -0.1097  0.9336  0.0945  -1.5868   0.0000   0.0000   0.0000  -1.1457
  -8.250  -0.0710   0.07960   0.07551  -0.1106  0.9291  0.0978  -1.5459   0.0000   0.0000   0.0000  -1.3918
  -7.750  -0.0732   0.07357   0.06952  -0.1143  0.9143  0.1032  -1.6016   0.0000   0.0000   0.0000  -1.3875
  -7.500  -0.0710   0.07094   0.06689  -0.1161  0.9085  0.1068  -1.6059   0.0000   0.0000   0.0000  -1.4599
  -7.000  -0.1533   0.04042   0.03473  -0.1404  0.8833  0.0661  -2.8234   0.0000   0.0000   0.0000  -0.7017
  -6.750  -0.1336   0.03727   0.03129  -0.1411  0.8796  0.0656  -2.7907   0.0000   0.0000   0.0000  -0.8455
  -6.500  -0.1186   0.03460   0.02823  -0.1406  0.8745  0.0650  -2.7737   0.0000   0.0000   0.0000  -0.9790
  -6.250  -0.0997   0.03205   0.02509  -0.1404  0.8697  0.0656  -2.7538   0.0000   0.0000   0.0000  -1.2099
  -6.000  -0.0704   0.02992   0.02258  -0.1413  0.8675  0.0670  -2.6767   0.0000   0.0000   0.0000  -1.8274
  -5.750  -0.0549   0.02927   0.02186  -0.1398  0.8611  0.0683  -2.5873   0.0000   0.0000   0.0000  -2.3805
  -5.500  -0.0260   0.02796   0.02022  -0.1402  0.8581  0.0709  -2.4885   0.0000   0.0000   0.0000  -5.3215
  -5.250   0.0064   0.02661   0.01864  -0.1411  0.8562  0.0736  -2.3836   0.0000   0.0000   0.0000  23.0715
  -5.000   0.0217   0.02637   0.01836  -0.1393  0.8493  0.0762  -2.2970   0.0000   0.0000   0.0000   6.8746
  -4.750   0.0528   0.02538   0.01719  -0.1399  0.8468  0.0800  -2.1851   0.0000   0.0000   0.0000   2.9728
  -4.250   0.1010   0.02446   0.01622  -0.1389  0.8378  0.0888  -1.9805   0.0000   0.0000   0.0000   1.6606
  -4.000   0.1329   0.02372   0.01545  -0.1395  0.8355  0.0953  -1.8640   0.0000   0.0000   0.0000   1.3248
  -3.750   0.1525   0.02362   0.01534  -0.1384  0.8296  0.1020  -1.7730   0.0000   0.0000   0.0000   1.1785
  -3.500   0.1814   0.02310   0.01489  -0.1386  0.8262  0.1116  -1.6628   0.0000   0.0000   0.0000   1.0307
  -3.250   0.2142   0.02247   0.01428  -0.1393  0.8242  0.1267  -1.5500   0.0000   0.0000   0.0000   0.9133
  -3.000   0.2321   0.02251   0.01447  -0.1381  0.8174  0.1428  -1.4651   0.0000   0.0000   0.0000   0.8561
  -2.750   0.2634   0.02195   0.01404  -0.1387  0.8147  0.1772  -1.3540   0.0000   0.0000   0.0000   0.7855
  -2.250   0.3143   0.02151   0.01404  -0.1385  0.8055  0.2772  -1.1565   0.0000   0.0000   0.0000   0.6970
  -2.000   0.3465   0.02098   0.01376  -0.1392  0.8032  0.3460  -1.0420   0.0000   0.0000   0.0000   0.6567
  -1.750   0.3666   0.02110   0.01417  -0.1384  0.7968  0.4152  -0.9569   0.0000   0.0000   0.0000   0.6316
  -1.500   0.3957   0.02066   0.01409  -0.1384  0.7937  0.5162  -0.8552   0.0000   0.0000   0.0000   0.6028
  -1.250   0.4257   0.02013   0.01391  -0.1380  0.7918  0.6235  -0.7576   0.0000   0.0000   0.0000   0.5764
  -1.000   0.4406   0.02054   0.01454  -0.1357  0.7843  0.7017  -0.7523   0.0000   0.0000   0.0000   0.5597
  -0.500   0.4784   0.02052   0.01480  -0.1309  0.7747  0.8351  -0.7814   0.0000   0.0000   0.0000   0.5241
  -0.250   0.5008   0.02011   0.01446  -0.1283  0.7719  0.9086  -0.7999   0.0000   0.0000   0.0000   0.5063
   0.000   0.5476   0.01960   0.01385  -0.1312  0.7705  1.0000  -0.8323   0.0000   0.0000   0.0000   0.4891
   0.250   0.5680   0.02016   0.01432  -0.1308  0.7625  1.0000  -0.8476   0.0000   0.0000   0.0000   0.4792
   0.500   0.6047   0.01984   0.01386  -0.1320  0.7606  1.0000  -0.8756   0.0000   0.0000   0.0000   0.4669
   0.750   0.6256   0.02035   0.01430  -0.1314  0.7530  1.0000  -0.8925   0.0000   0.0000   0.0000   0.4581
   1.000   0.6612   0.02002   0.01385  -0.1323  0.7507  1.0000  -0.9218   0.0000   0.0000   0.0000   0.4478
   1.500   0.7181   0.02010   0.01378  -0.1325  0.7408  1.0000  -0.9714   0.0000   0.0000   0.0000   0.4314
   2.000   0.7756   0.02008   0.01365  -0.1326  0.7308  1.0000  -1.0251   0.0000   0.0000   0.0000   0.4172
   2.500   0.8338   0.01996   0.01344  -0.1327  0.7208  1.0000  -1.0829   0.0000   0.0000   0.0000   0.4047
   3.000   0.8926   0.01974   0.01316  -0.1328  0.7105  1.0000  -1.1454   0.0000   0.0000   0.0000   0.3936
   3.500   0.9524   0.01942   0.01279  -0.1330  0.6999  1.0000  -1.2130   0.0000   0.0000   0.0000   0.3838
   3.750   0.9779   0.01949   0.01286  -0.1325  0.6929  1.0000  -1.2460   0.0000   0.0000   0.0000   0.3793
   4.000   1.0131   0.01902   0.01234  -0.1333  0.6889  1.0000  -1.2894   0.0000   0.0000   0.0000   0.3750
   4.250   1.0376   0.01911   0.01245  -0.1326  0.6810  1.0000  -1.3241   0.0000   0.0000   0.0000   0.3709
   4.500   1.0663   0.01896   0.01230  -0.1325  0.6745  1.0000  -1.3660   0.0000   0.0000   0.0000   0.3671
   4.750   1.0991   0.01861   0.01192  -0.1329  0.6688  1.0000  -1.4133   0.0000   0.0000   0.0000   0.3634
   5.000   1.1244   0.01862   0.01196  -0.1324  0.6605  1.0000  -1.4546   0.0000   0.0000   0.0000   0.3598
   5.250   1.1513   0.01854   0.01189  -0.1320  0.6523  1.0000  -1.5017   0.0000   0.0000   0.0000   0.3564
   5.500   1.1799   0.01838   0.01173  -0.1318  0.6444  1.0000  -1.5524   0.0000   0.0000   0.0000   0.3531
   5.750   1.2096   0.01817   0.01150  -0.1318  0.6363  1.0000  -1.6090   0.0000   0.0000   0.0000   0.3500
   6.000   1.2379   0.01802   0.01134  -0.1316  0.6273  1.0000  -1.6698   0.0000   0.0000   0.0000   0.3470
   6.250   1.2632   0.01800   0.01134  -0.1310  0.6169  1.0000  -1.7352   0.0000   0.0000   0.0000   0.3440
   6.500   1.2868   0.01804   0.01141  -0.1301  0.6056  1.0000  -1.8069   0.0000   0.0000   0.0000   0.3410
   6.750   1.3101   0.01811   0.01150  -0.1292  0.5937  1.0000  -1.8829   0.0000   0.0000   0.0000   0.3382
   7.000   1.3337   0.01817   0.01157  -0.1283  0.5813  1.0000  -1.9625   0.0000   0.0000   0.0000   0.3354
   7.250   1.3582   0.01822   0.01160  -0.1275  0.5687  1.0000  -2.0475   0.0000   0.0000   0.0000   0.3327
   7.500   1.3788   0.01841   0.01181  -0.1262  0.5545  1.0000  -2.1296   0.0000   0.0000   0.0000   0.3299
   7.750   1.3993   0.01862   0.01201  -0.1249  0.5397  1.0000  -2.2134   0.0000   0.0000   0.0000   0.3272
   8.000   1.4183   0.01890   0.01228  -0.1233  0.5240  1.0000  -2.2977   0.0000   0.0000   0.0000   0.3245
   8.250   1.4369   0.01921   0.01255  -0.1217  0.5079  1.0000  -2.3890   0.0000   0.0000   0.0000   0.3219
   8.500   1.4513   0.01965   0.01298  -0.1195  0.4905  1.0000  -2.4942   0.0000   0.0000   0.0000   0.3191
   8.750   1.4650   0.02013   0.01343  -0.1172  0.4732  1.0000  -2.5993   0.0000   0.0000   0.0000   0.3164
   9.000   1.4770   0.02066   0.01389  -0.1147  0.4563  1.0000  -2.7012   0.0000   0.0000   0.0000   0.3136
   9.250   1.4858   0.02135   0.01456  -0.1118  0.4387  1.0000  -2.7957   0.0000   0.0000   0.0000   0.3107
   9.500   1.4944   0.02213   0.01531  -0.1090  0.4215  1.0000  -2.8905   0.0000   0.0000   0.0000   0.3080
   9.750   1.5027   0.02298   0.01610  -0.1064  0.4047  1.0000  -2.9856   0.0000   0.0000   0.0000   0.3054
  10.000   1.5093   0.02395   0.01705  -0.1036  0.3877  1.0000  -3.0764   0.0000   0.0000   0.0000   0.3029
  10.250   1.5152   0.02502   0.01810  -0.1010  0.3709  1.0000  -3.1673   0.0000   0.0000   0.0000   0.3004
  10.500   1.5209   0.02617   0.01920  -0.0984  0.3548  1.0000  -3.2600   0.0000   0.0000   0.0000   0.2980
  10.750   1.5253   0.02745   0.02047  -0.0959  0.3383  1.0000  -3.3490   0.0000   0.0000   0.0000   0.2957
  11.000   1.5293   0.02881   0.02182  -0.0934  0.3223  1.0000  -3.4375   0.0000   0.0000   0.0000   0.2934
  11.250   1.5324   0.03029   0.02326  -0.0910  0.3066  1.0000  -3.5238   0.0000   0.0000   0.0000   0.2912
  11.500   1.5350   0.03187   0.02485  -0.0886  0.2906  1.0000  -3.6082   0.0000   0.0000   0.0000   0.2891
  11.750   1.5365   0.03357   0.02651  -0.0863  0.2755  1.0000  -3.6903   0.0000   0.0000   0.0000   0.2871
  12.000   1.5377   0.03538   0.02832  -0.0841  0.2597  1.0000  -3.7705   0.0000   0.0000   0.0000   0.2851
  12.250   1.5379   0.03732   0.03022  -0.0820  0.2449  1.0000  -3.8480   0.0000   0.0000   0.0000   0.2832
  12.500   1.5374   0.03937   0.03227  -0.0799  0.2300  1.0000  -3.9231   0.0000   0.0000   0.0000   0.2814
  12.750   1.5365   0.04154   0.03442  -0.0780  0.2157  1.0000  -3.9961   0.0000   0.0000   0.0000   0.2796
  13.000   1.5348   0.04387   0.03672  -0.0762  0.2017  1.0000  -4.0664   0.0000   0.0000   0.0000   0.2779
  13.250   1.5329   0.04631   0.03914  -0.0745  0.1883  1.0000  -4.1351   0.0000   0.0000   0.0000   0.2764
  13.500   1.5305   0.04890   0.04171  -0.0729  0.1752  1.0000  -4.2046   0.0000   0.0000   0.0000   0.2749
  13.750   1.5273   0.05163   0.04438  -0.0714  0.1637  1.0000  -4.2712   0.0000   0.0000   0.0000   0.2735
  14.000   1.5252   0.05437   0.04714  -0.0702  0.1518  1.0000  -4.3399   0.0000   0.0000   0.0000   0.2722
  14.250   1.5227   0.05722   0.04998  -0.0690  0.1413  1.0000  -4.4069   0.0000   0.0000   0.0000   0.2710
  14.500   1.5203   0.06013   0.05288  -0.0680  0.1321  1.0000  -4.4738   0.0000   0.0000   0.0000   0.2698
  14.750   1.5183   0.06305   0.05581  -0.0670  0.1237  1.0000  -4.5408   0.0000   0.0000   0.0000   0.2687
  15.000   1.5167   0.06598   0.05874  -0.0662  0.1162  1.0000  -4.6085   0.0000   0.0000   0.0000   0.2676
  15.250   1.5156   0.06890   0.06168  -0.0655  0.1095  1.0000  -4.6767   0.0000   0.0000   0.0000   0.2666
  15.500   1.5148   0.07180   0.06459  -0.0648  0.1036  1.0000  -4.7455   0.0000   0.0000   0.0000   0.2656
  15.750   1.5145   0.07462   0.06737  -0.0641  0.0983  1.0000  -4.8202   0.0000   0.0000   0.0000   0.2647
  16.000   1.5143   0.07760   0.07044  -0.0637  0.0930  1.0000  -4.8917   0.0000   0.0000   0.0000   0.2638
  16.250   1.5145   0.08048   0.07338  -0.0633  0.0882  1.0000  -4.9643   0.0000   0.0000   0.0000   0.2630
  16.500   1.5159   0.08314   0.07601  -0.0628  0.0841  1.0000  -5.0599   0.0000   0.0000   0.0000   0.2620
  16.750   1.5160   0.08616   0.07912  -0.0626  0.0798  1.0000  -5.1457   0.0000   0.0000   0.0000   0.2613
  17.000   1.5172   0.08895   0.08196  -0.0623  0.0761  1.0000  -5.2365   0.0000   0.0000   0.0000   0.2605
  17.250   1.5206   0.09137   0.08434  -0.0620  0.0725  1.0000  -5.3418   0.0000   0.0000   0.0000   0.2597
  17.500   1.5201   0.09455   0.08768  -0.0620  0.0691  1.0000  -5.4187   0.0000   0.0000   0.0000   0.2591
  17.750   1.5267   0.09643   0.08946  -0.0616  0.0660  1.0000  -5.5451   0.0000   0.0000   0.0000   0.2581
  18.000   1.5249   0.09989   0.09313  -0.0620  0.0632  1.0000  -5.6153   0.0000   0.0000   0.0000   0.2577
  18.250   1.5338   0.10141   0.09455  -0.0614  0.0605  1.0000  -5.7528   0.0000   0.0000   0.0000   0.2566
  18.500   1.5319   0.10492   0.09828  -0.0620  0.0581  1.0000  -5.8189   0.0000   0.0000   0.0000   0.2563
  18.750   1.5458   0.10562   0.09882  -0.0611  0.0557  1.0000  -5.9866   0.0000   0.0000   0.0000   0.2549
  19.000   1.5406   0.10973   0.10321  -0.0622  0.0540  1.0000  -6.0286   0.0000   0.0000   0.0000   0.2550
  19.250   1.5452   0.11210   0.10565  -0.0624  0.0522  1.0000  -6.1369   0.0000   0.0000   0.0000   0.2544
  19.500   1.5543   0.11366   0.10721  -0.0622  0.0505  1.0000  -6.2693   0.0000   0.0000   0.0000   0.2534
  19.750   1.5499   0.11768   0.11147  -0.0634  0.0493  1.0000  -6.3114   0.0000   0.0000   0.0000   0.2537
  20.000   1.5527   0.12040   0.11430  -0.0642  0.0479  1.0000  -6.4101   0.0000   0.0000   0.0000   0.2534


