xflr5 v6.61

 Calculated polar for: QX0026  thickness=14.08

 1 1 Reynolds number fixed          Mach number fixed         

 xtrf =   1.000 (top)        1.000 (bottom)
 Mach =   0.000     Re =     0.600 e 6     Ncrit =   9.000

  alpha     CL        CD       CDp       Cm    Top Xtr Bot Xtr   Cpmin    Chinge    XCp    
 ------- -------- --------- --------- -------- ------- ------- -------- --------- ---------
 -10.000  -0.4736   0.02377   0.01885  -0.1315  0.8367  0.0240  -6.0622   0.0000   0.0000   0.0000  -0.0472
  -9.750  -0.4512   0.02256   0.01741  -0.1317  0.8337  0.0246  -5.8733   0.0000   0.0000   0.0000  -0.0618
  -9.500  -0.4288   0.02109   0.01560  -0.1320  0.8299  0.0252  -5.7220   0.0000   0.0000   0.0000  -0.0780
  -9.250  -0.4047   0.01999   0.01438  -0.1322  0.8265  0.0256  -5.5292   0.0000   0.0000   0.0000  -0.0971
  -9.000  -0.3790   0.01937   0.01371  -0.1323  0.8238  0.0261  -5.3079   0.0000   0.0000   0.0000  -0.1201
  -8.750  -0.3529   0.01874   0.01303  -0.1325  0.8203  0.0267  -5.0952   0.0000   0.0000   0.0000  -0.1471
  -8.500  -0.3270   0.01795   0.01204  -0.1326  0.8170  0.0275  -4.9059   0.0000   0.0000   0.0000  -0.1780
  -8.250  -0.3011   0.01711   0.01106  -0.1327  0.8141  0.0281  -4.7159   0.0000   0.0000   0.0000  -0.2142
  -8.000  -0.2744   0.01656   0.01049  -0.1329  0.8112  0.0287  -4.5142   0.0000   0.0000   0.0000  -0.2588
  -7.750  -0.2474   0.01602   0.00990  -0.1330  0.8078  0.0294  -4.3210   0.0000   0.0000   0.0000  -0.3138
  -7.500  -0.2200   0.01552   0.00922  -0.1331  0.8048  0.0304  -4.1387   0.0000   0.0000   0.0000  -0.3833
  -7.250  -0.1931   0.01492   0.00862  -0.1333  0.8022  0.0312  -3.9507   0.0000   0.0000   0.0000  -0.4706
  -7.000  -0.1656   0.01448   0.00816  -0.1334  0.7989  0.0321  -3.7707   0.0000   0.0000   0.0000  -0.5895
  -6.750  -0.1378   0.01405   0.00763  -0.1335  0.7957  0.0331  -3.6012   0.0000   0.0000   0.0000  -0.7577
  -6.500  -0.1105   0.01355   0.00712  -0.1337  0.7929  0.0342  -3.4264   0.0000   0.0000   0.0000  -1.0067
  -6.250  -0.0825   0.01322   0.00676  -0.1339  0.7901  0.0355  -3.2538   0.0000   0.0000   0.0000  -1.4326
  -6.000  -0.0547   0.01280   0.00630  -0.1340  0.7867  0.0368  -3.0975   0.0000   0.0000   0.0000  -2.2860
  -5.750  -0.0266   0.01246   0.00596  -0.1342  0.7837  0.0383  -2.9347   0.0000   0.0000   0.0000  -4.9623
  -5.500   0.0018   0.01215   0.00556  -0.1344  0.7812  0.0400  -2.7795   0.0000   0.0000   0.0000  78.9238
  -5.250   0.0299   0.01184   0.00529  -0.1345  0.7778  0.0419  -2.6201   0.0000   0.0000   0.0000   4.8901
  -5.000   0.0582   0.01153   0.00495  -0.1347  0.7746  0.0441  -2.4723   0.0000   0.0000   0.0000   2.6311
  -4.750   0.0868   0.01129   0.00468  -0.1349  0.7718  0.0465  -2.3266   0.0000   0.0000   0.0000   1.8450
  -4.500   0.1153   0.01102   0.00441  -0.1352  0.7690  0.0492  -2.1836   0.0000   0.0000   0.0000   1.4512
  -4.250   0.1438   0.01077   0.00416  -0.1354  0.7655  0.0525  -2.0438   0.0000   0.0000   0.0000   1.2132
  -4.000   0.1726   0.01055   0.00393  -0.1356  0.7624  0.0565  -1.9047   0.0000   0.0000   0.0000   1.0525
  -3.750   0.2015   0.01035   0.00371  -0.1358  0.7598  0.0616  -1.7724   0.0000   0.0000   0.0000   0.9374
  -3.500   0.2300   0.01012   0.00353  -0.1361  0.7561  0.0684  -1.6456   0.0000   0.0000   0.0000   0.8523
  -3.250   0.2588   0.00991   0.00335  -0.1363  0.7527  0.0789  -1.5205   0.0000   0.0000   0.0000   0.7853
  -3.000   0.2877   0.00968   0.00317  -0.1366  0.7499  0.0962  -1.3968   0.0000   0.0000   0.0000   0.7317
  -2.750   0.3162   0.00946   0.00306  -0.1368  0.7462  0.1224  -1.2780   0.0000   0.0000   0.0000   0.6884
  -2.500   0.3450   0.00926   0.00296  -0.1371  0.7426  0.1537  -1.1636   0.0000   0.0000   0.0000   0.6521
  -2.250   0.3740   0.00910   0.00286  -0.1374  0.7396  0.1856  -1.0504   0.0000   0.0000   0.0000   0.6210
  -2.000   0.4025   0.00894   0.00281  -0.1376  0.7357  0.2173  -0.9434   0.0000   0.0000   0.0000   0.5948
  -1.250   0.4887   0.00846   0.00268  -0.1385  0.7244  0.3449  -0.8049   0.0000   0.0000   0.0000   0.5341
  -1.000   0.5174   0.00826   0.00264  -0.1387  0.7206  0.4060  -0.8235   0.0000   0.0000   0.0000   0.5184
  -0.750   0.5459   0.00807   0.00264  -0.1390  0.7169  0.4789  -0.8429   0.0000   0.0000   0.0000   0.5044
  -0.500   0.5740   0.00788   0.00267  -0.1391  0.7125  0.5549  -0.8628   0.0000   0.0000   0.0000   0.4917
  -0.250   0.6024   0.00773   0.00268  -0.1392  0.7088  0.6201  -0.8831   0.0000   0.0000   0.0000   0.4800
   0.000   0.6301   0.00763   0.00274  -0.1391  0.7041  0.6803  -0.9037   0.0000   0.0000   0.0000   0.4694
   0.250   0.6580   0.00757   0.00276  -0.1391  0.6999  0.7242  -0.9257   0.0000   0.0000   0.0000   0.4595
   0.500   0.6855   0.00752   0.00280  -0.1389  0.6955  0.7616  -0.9479   0.0000   0.0000   0.0000   0.4504
   0.750   0.7127   0.00746   0.00283  -0.1386  0.6906  0.7966  -0.9703   0.0000   0.0000   0.0000   0.4419
   1.000   0.7394   0.00742   0.00286  -0.1382  0.6861  0.8319  -0.9937   0.0000   0.0000   0.0000   0.4340
   1.250   0.7647   0.00736   0.00289  -0.1375  0.6809  0.8688  -1.0171   0.0000   0.0000   0.0000   0.4265
   1.500   0.7881   0.00729   0.00289  -0.1363  0.6762  0.9159  -1.0399   0.0000   0.0000   0.0000   0.4193
   1.750   0.8216   0.00720   0.00285  -0.1373  0.6705  1.0000  -1.0696   0.0000   0.0000   0.0000   0.4132
   2.000   0.8504   0.00727   0.00287  -0.1376  0.6652  1.0000  -1.0978   0.0000   0.0000   0.0000   0.4075
   2.250   0.8789   0.00733   0.00290  -0.1378  0.6594  1.0000  -1.1265   0.0000   0.0000   0.0000   0.4022
   2.500   0.9072   0.00740   0.00295  -0.1380  0.6532  1.0000  -1.1556   0.0000   0.0000   0.0000   0.3971
   2.750   0.9355   0.00749   0.00298  -0.1381  0.6474  1.0000  -1.1862   0.0000   0.0000   0.0000   0.3924
   3.000   0.9634   0.00756   0.00305  -0.1382  0.6404  1.0000  -1.2178   0.0000   0.0000   0.0000   0.3878
   3.250   0.9913   0.00765   0.00312  -0.1382  0.6336  1.0000  -1.2499   0.0000   0.0000   0.0000   0.3836
   3.500   1.0189   0.00776   0.00318  -0.1383  0.6265  1.0000  -1.2838   0.0000   0.0000   0.0000   0.3795
   3.750   1.0463   0.00786   0.00327  -0.1382  0.6187  1.0000  -1.3203   0.0000   0.0000   0.0000   0.3756
   4.000   1.0735   0.00797   0.00336  -0.1382  0.6102  1.0000  -1.3570   0.0000   0.0000   0.0000   0.3719
   4.250   1.1004   0.00809   0.00346  -0.1381  0.6011  1.0000  -1.3970   0.0000   0.0000   0.0000   0.3683
   4.500   1.1269   0.00823   0.00358  -0.1379  0.5915  1.0000  -1.4381   0.0000   0.0000   0.0000   0.3649
   4.750   1.1532   0.00838   0.00370  -0.1377  0.5815  1.0000  -1.4802   0.0000   0.0000   0.0000   0.3616
   5.000   1.1791   0.00855   0.00384  -0.1374  0.5706  1.0000  -1.5259   0.0000   0.0000   0.0000   0.3584
   5.250   1.2044   0.00874   0.00400  -0.1371  0.5588  1.0000  -1.5727   0.0000   0.0000   0.0000   0.3553
   5.500   1.2294   0.00895   0.00417  -0.1367  0.5466  1.0000  -1.6225   0.0000   0.0000   0.0000   0.3523
   5.750   1.2539   0.00917   0.00436  -0.1362  0.5328  1.0000  -1.6770   0.0000   0.0000   0.0000   0.3493
   6.000   1.2774   0.00944   0.00458  -0.1355  0.5180  1.0000  -1.7391   0.0000   0.0000   0.0000   0.3465
   6.250   1.3005   0.00972   0.00482  -0.1348  0.5023  1.0000  -1.8089   0.0000   0.0000   0.0000   0.3437
   6.500   1.3223   0.01006   0.00509  -0.1338  0.4856  1.0000  -1.8828   0.0000   0.0000   0.0000   0.3409
   6.750   1.3431   0.01044   0.00540  -0.1327  0.4676  1.0000  -1.9582   0.0000   0.0000   0.0000   0.3381
   7.000   1.3629   0.01085   0.00574  -0.1315  0.4488  1.0000  -2.0371   0.0000   0.0000   0.0000   0.3354
   7.250   1.3815   0.01130   0.00611  -0.1301  0.4298  1.0000  -2.1163   0.0000   0.0000   0.0000   0.3327
   7.500   1.3988   0.01178   0.00652  -0.1284  0.4114  1.0000  -2.1961   0.0000   0.0000   0.0000   0.3300
   7.750   1.4133   0.01229   0.00696  -0.1262  0.3936  1.0000  -2.2721   0.0000   0.0000   0.0000   0.3271
   8.250   1.4424   0.01345   0.00800  -0.1223  0.3590  1.0000  -2.4515   0.0000   0.0000   0.0000   0.3218
   8.500   1.4564   0.01411   0.00860  -0.1204  0.3428  1.0000  -2.5568   0.0000   0.0000   0.0000   0.3192
   8.750   1.4698   0.01483   0.00926  -0.1184  0.3266  1.0000  -2.6620   0.0000   0.0000   0.0000   0.3168
   9.000   1.4832   0.01559   0.00997  -0.1166  0.3103  1.0000  -2.7684   0.0000   0.0000   0.0000   0.3144
   9.250   1.4953   0.01646   0.01077  -0.1147  0.2941  1.0000  -2.8726   0.0000   0.0000   0.0000   0.3120
   9.500   1.5069   0.01738   0.01163  -0.1128  0.2772  1.0000  -2.9791   0.0000   0.0000   0.0000   0.3098
   9.750   1.5182   0.01836   0.01255  -0.1110  0.2605  1.0000  -3.0873   0.0000   0.0000   0.0000   0.3076
  10.000   1.5285   0.01942   0.01355  -0.1091  0.2441  1.0000  -3.1937   0.0000   0.0000   0.0000   0.3054
  10.500   1.5478   0.02172   0.01572  -0.1053  0.2122  1.0000  -3.4057   0.0000   0.0000   0.0000   0.3012
  10.750   1.5565   0.02296   0.01691  -0.1035  0.1973  1.0000  -3.5106   0.0000   0.0000   0.0000   0.2991
  11.000   1.5646   0.02428   0.01817  -0.1016  0.1827  1.0000  -3.6141   0.0000   0.0000   0.0000   0.2971
  11.250   1.5724   0.02563   0.01947  -0.0998  0.1687  1.0000  -3.7179   0.0000   0.0000   0.0000   0.2952
  11.500   1.5789   0.02710   0.02088  -0.0979  0.1554  1.0000  -3.8183   0.0000   0.0000   0.0000   0.2932
  11.750   1.5860   0.02856   0.02230  -0.0961  0.1428  1.0000  -3.9212   0.0000   0.0000   0.0000   0.2914
  12.000   1.5921   0.03010   0.02380  -0.0943  0.1312  1.0000  -4.0217   0.0000   0.0000   0.0000   0.2895
  12.250   1.5977   0.03171   0.02538  -0.0926  0.1208  1.0000  -4.1211   0.0000   0.0000   0.0000   0.2877
  12.500   1.6037   0.03333   0.02697  -0.0909  0.1107  1.0000  -4.2224   0.0000   0.0000   0.0000   0.2860
  12.750   1.6091   0.03504   0.02867  -0.0893  0.1016  1.0000  -4.3233   0.0000   0.0000   0.0000   0.2843
  13.000   1.6141   0.03682   0.03043  -0.0878  0.0935  1.0000  -4.4260   0.0000   0.0000   0.0000   0.2826
  13.250   1.6190   0.03866   0.03227  -0.0863  0.0863  1.0000  -4.5288   0.0000   0.0000   0.0000   0.2810
  13.500   1.6237   0.04056   0.03417  -0.0849  0.0799  1.0000  -4.6313   0.0000   0.0000   0.0000   0.2795
  13.750   1.6283   0.04251   0.03613  -0.0836  0.0743  1.0000  -4.7337   0.0000   0.0000   0.0000   0.2780
  14.000   1.6326   0.04453   0.03817  -0.0823  0.0694  1.0000  -4.8355   0.0000   0.0000   0.0000   0.2766
  14.250   1.6362   0.04666   0.04032  -0.0811  0.0651  1.0000  -4.9350   0.0000   0.0000   0.0000   0.2752
  14.500   1.6391   0.04890   0.04258  -0.0800  0.0611  1.0000  -5.0323   0.0000   0.0000   0.0000   0.2739
  14.750   1.6434   0.05105   0.04477  -0.0790  0.0575  1.0000  -5.1348   0.0000   0.0000   0.0000   0.2726
  15.000   1.6461   0.05339   0.04716  -0.0780  0.0544  1.0000  -5.2314   0.0000   0.0000   0.0000   0.2713
  15.250   1.6478   0.05590   0.04970  -0.0771  0.0515  1.0000  -5.3240   0.0000   0.0000   0.0000   0.2702
  15.500   1.6508   0.05830   0.05216  -0.0763  0.0487  1.0000  -5.4237   0.0000   0.0000   0.0000   0.2690
  15.750   1.6508   0.06106   0.05496  -0.0755  0.0464  1.0000  -5.5271   0.0000   0.0000   0.0000   0.2680
  16.000   1.6529   0.06365   0.05761  -0.0749  0.0439  1.0000  -5.6445   0.0000   0.0000   0.0000   0.2669
  16.250   1.6526   0.06656   0.06058  -0.0743  0.0418  1.0000  -5.7515   0.0000   0.0000   0.0000   0.2660
  16.500   1.6520   0.06953   0.06361  -0.0738  0.0396  1.0000  -5.8576   0.0000   0.0000   0.0000   0.2651
  16.750   1.6508   0.07263   0.06678  -0.0734  0.0376  1.0000  -5.9597   0.0000   0.0000   0.0000   0.2643
  17.000   1.6478   0.07601   0.07021  -0.0731  0.0358  1.0000  -6.0533   0.0000   0.0000   0.0000   0.2636
  17.250   1.6458   0.07930   0.07359  -0.0729  0.0340  1.0000  -6.1502   0.0000   0.0000   0.0000   0.2629
  17.500   1.6411   0.08300   0.07734  -0.0728  0.0326  1.0000  -6.2335   0.0000   0.0000   0.0000   0.2624
  17.750   1.6376   0.08660   0.08103  -0.0728  0.0311  1.0000  -6.3209   0.0000   0.0000   0.0000   0.2619
  18.000   1.6327   0.09041   0.08491  -0.0730  0.0299  1.0000  -6.4014   0.0000   0.0000   0.0000   0.2615
  18.250   1.6256   0.09460   0.08916  -0.0734  0.0290  1.0000  -6.4674   0.0000   0.0000   0.0000   0.2612
  18.500   1.6220   0.09835   0.09302  -0.0738  0.0279  1.0000  -6.5509   0.0000   0.0000   0.0000   0.2610
  18.750   1.6160   0.10247   0.09721  -0.0744  0.0271  1.0000  -6.6212   0.0000   0.0000   0.0000   0.2609
  19.000   1.6073   0.10705   0.10185  -0.0753  0.0264  1.0000  -6.6732   0.0000   0.0000   0.0000   0.2610
  19.250   1.6040   0.11088   0.10579  -0.0762  0.0257  1.0000  -6.7535   0.0000   0.0000   0.0000   0.2610
  19.500   1.5995   0.11492   0.10992  -0.0772  0.0250  1.0000  -6.8294   0.0000   0.0000   0.0000   0.2611
  19.750   1.5935   0.11921   0.11428  -0.0785  0.0244  1.0000  -6.8955   0.0000   0.0000   0.0000   0.2615
  20.000   1.5855   0.12384   0.11897  -0.0800  0.0239  1.0000  -6.9459   0.0000   0.0000   0.0000   0.2620


