xflr5 v6.61

 Calculated polar for: QX0026  thickness=14.08

 1 1 Reynolds number fixed          Mach number fixed         

 xtrf =   1.000 (top)        1.000 (bottom)
 Mach =   0.000     Re =     0.940 e 6     Ncrit =   9.000

  alpha     CL        CD       CDp       Cm    Top Xtr Bot Xtr   Cpmin    Chinge    XCp    
 ------- -------- --------- --------- -------- ------- ------- -------- --------- ---------
  -9.750  -0.4730   0.01642   0.01110  -0.1303  0.8095  0.0213  -6.2737   0.0000   0.0000   0.0000  -0.0449
  -9.500  -0.4463   0.01595   0.01059  -0.1305  0.8064  0.0217  -6.0312   0.0000   0.0000   0.0000  -0.0621
  -9.250  -0.4196   0.01547   0.01002  -0.1307  0.8035  0.0222  -5.7978   0.0000   0.0000   0.0000  -0.0814
  -9.000  -0.3926   0.01499   0.00944  -0.1308  0.8006  0.0227  -5.5708   0.0000   0.0000   0.0000  -0.1038
  -8.750  -0.3657   0.01444   0.00881  -0.1310  0.7974  0.0232  -5.3486   0.0000   0.0000   0.0000  -0.1293
  -8.500  -0.3386   0.01398   0.00835  -0.1312  0.7944  0.0237  -5.1194   0.0000   0.0000   0.0000  -0.1593
  -8.250  -0.3110   0.01363   0.00794  -0.1314  0.7917  0.0243  -4.9014   0.0000   0.0000   0.0000  -0.1951
  -8.000  -0.2832   0.01325   0.00750  -0.1316  0.7887  0.0249  -4.6921   0.0000   0.0000   0.0000  -0.2383
  -7.750  -0.2555   0.01281   0.00699  -0.1317  0.7856  0.0255  -4.4890   0.0000   0.0000   0.0000  -0.2907
  -7.500  -0.2279   0.01241   0.00659  -0.1319  0.7828  0.0261  -4.2843   0.0000   0.0000   0.0000  -0.3559
  -7.250  -0.1997   0.01214   0.00626  -0.1321  0.7801  0.0270  -4.0867   0.0000   0.0000   0.0000  -0.4409
  -7.000  -0.1713   0.01187   0.00593  -0.1323  0.7770  0.0278  -3.8964   0.0000   0.0000   0.0000  -0.5554
  -6.750  -0.1435   0.01145   0.00551  -0.1326  0.7740  0.0286  -3.7091   0.0000   0.0000   0.0000  -0.7112
  -6.500  -0.1151   0.01119   0.00521  -0.1328  0.7713  0.0296  -3.5229   0.0000   0.0000   0.0000  -0.9480
  -6.250  -0.0866   0.01091   0.00489  -0.1330  0.7685  0.0307  -3.3517   0.0000   0.0000   0.0000  -1.3414
  -6.000  -0.0581   0.01063   0.00462  -0.1332  0.7653  0.0319  -3.1763   0.0000   0.0000   0.0000  -2.1207
  -5.750  -0.0293   0.01044   0.00437  -0.1334  0.7625  0.0333  -3.0065   0.0000   0.0000   0.0000  -4.4491
  -5.250   0.0280   0.00998   0.00387  -0.1339  0.7567  0.0363  -2.6746   0.0000   0.0000   0.0000   5.1638
  -5.000   0.0567   0.00972   0.00362  -0.1341  0.7536  0.0382  -2.5198   0.0000   0.0000   0.0000   2.6798
  -4.750   0.0856   0.00953   0.00340  -0.1344  0.7508  0.0403  -2.3686   0.0000   0.0000   0.0000   1.8606
  -4.500   0.1145   0.00936   0.00323  -0.1346  0.7479  0.0426  -2.2184   0.0000   0.0000   0.0000   1.4539
  -4.250   0.1434   0.00916   0.00303  -0.1349  0.7446  0.0453  -2.0718   0.0000   0.0000   0.0000   1.2115
  -4.000   0.1724   0.00899   0.00285  -0.1351  0.7415  0.0486  -1.9278   0.0000   0.0000   0.0000   1.0501
  -3.750   0.2014   0.00884   0.00269  -0.1354  0.7386  0.0527  -1.7916   0.0000   0.0000   0.0000   0.9351
  -3.500   0.2304   0.00867   0.00255  -0.1356  0.7351  0.0583  -1.6598   0.0000   0.0000   0.0000   0.8491
  -3.000   0.2884   0.00836   0.00228  -0.1361  0.7288  0.0792  -1.4040   0.0000   0.0000   0.0000   0.7289
  -2.750   0.3173   0.00816   0.00218  -0.1364  0.7250  0.0987  -1.2815   0.0000   0.0000   0.0000   0.6855
  -2.500   0.3463   0.00799   0.00209  -0.1367  0.7214  0.1232  -1.1654   0.0000   0.0000   0.0000   0.6493
  -2.250   0.3752   0.00786   0.00202  -0.1370  0.7182  0.1500  -1.0517   0.0000   0.0000   0.0000   0.6186
  -2.000   0.4042   0.00771   0.00197  -0.1373  0.7142  0.1779  -0.9426   0.0000   0.0000   0.0000   0.5924
  -1.750   0.4332   0.00758   0.00191  -0.1376  0.7104  0.2056  -0.8392   0.0000   0.0000   0.0000   0.5696
  -1.500   0.4621   0.00747   0.00187  -0.1379  0.7068  0.2379  -0.7895   0.0000   0.0000   0.0000   0.5497
  -1.250   0.4911   0.00734   0.00185  -0.1382  0.7026  0.2729  -0.8079   0.0000   0.0000   0.0000   0.5321
  -1.000   0.5199   0.00721   0.00182  -0.1385  0.6989  0.3155  -0.8265   0.0000   0.0000   0.0000   0.5165
  -0.750   0.5488   0.00706   0.00181  -0.1388  0.6946  0.3671  -0.8460   0.0000   0.0000   0.0000   0.5026
  -0.500   0.5775   0.00689   0.00181  -0.1391  0.6904  0.4303  -0.8662   0.0000   0.0000   0.0000   0.4900
  -0.250   0.6062   0.00673   0.00183  -0.1393  0.6863  0.5021  -0.8866   0.0000   0.0000   0.0000   0.4787
   0.000   0.6348   0.00659   0.00186  -0.1396  0.6815  0.5673  -0.9076   0.0000   0.0000   0.0000   0.4683
   0.250   0.6632   0.00649   0.00189  -0.1397  0.6773  0.6244  -0.9298   0.0000   0.0000   0.0000   0.4587
   0.500   0.6916   0.00641   0.00194  -0.1398  0.6722  0.6781  -0.9525   0.0000   0.0000   0.0000   0.4499
   0.750   0.7198   0.00639   0.00198  -0.1399  0.6677  0.7167  -0.9756   0.0000   0.0000   0.0000   0.4416
   1.000   0.7481   0.00635   0.00203  -0.1399  0.6622  0.7495  -0.9998   0.0000   0.0000   0.0000   0.4340
   1.250   0.7759   0.00635   0.00207  -0.1399  0.6572  0.7810  -1.0249   0.0000   0.0000   0.0000   0.4269
   1.500   0.8036   0.00631   0.00213  -0.1398  0.6515  0.8123  -1.0501   0.0000   0.0000   0.0000   0.4203
   1.750   0.8306   0.00630   0.00218  -0.1395  0.6461  0.8458  -1.0760   0.0000   0.0000   0.0000   0.4140
   2.000   0.8562   0.00626   0.00223  -0.1389  0.6400  0.8835  -1.1024   0.0000   0.0000   0.0000   0.4079
   2.250   0.8793   0.00620   0.00227  -0.1377  0.6339  0.9400  -1.1280   0.0000   0.0000   0.0000   0.4019
   2.500   0.9119   0.00622   0.00227  -0.1387  0.6277  1.0000  -1.1600   0.0000   0.0000   0.0000   0.3971
   2.750   0.9405   0.00629   0.00233  -0.1389  0.6205  1.0000  -1.1908   0.0000   0.0000   0.0000   0.3924
   3.000   0.9687   0.00638   0.00239  -0.1391  0.6133  1.0000  -1.2227   0.0000   0.0000   0.0000   0.3880
   3.250   0.9966   0.00649   0.00246  -0.1392  0.6057  1.0000  -1.2549   0.0000   0.0000   0.0000   0.3837
   3.500   1.0242   0.00661   0.00254  -0.1392  0.5975  1.0000  -1.2891   0.0000   0.0000   0.0000   0.3797
   3.750   1.0518   0.00673   0.00263  -0.1392  0.5882  1.0000  -1.3257   0.0000   0.0000   0.0000   0.3758
   4.000   1.0790   0.00686   0.00273  -0.1392  0.5783  1.0000  -1.3626   0.0000   0.0000   0.0000   0.3721
   4.250   1.1060   0.00701   0.00284  -0.1391  0.5682  1.0000  -1.4030   0.0000   0.0000   0.0000   0.3686
   4.500   1.1326   0.00718   0.00297  -0.1390  0.5570  1.0000  -1.4443   0.0000   0.0000   0.0000   0.3652
   4.750   1.1590   0.00735   0.00310  -0.1389  0.5446  1.0000  -1.4866   0.0000   0.0000   0.0000   0.3619
   5.000   1.1849   0.00754   0.00325  -0.1386  0.5317  1.0000  -1.5329   0.0000   0.0000   0.0000   0.3588
   5.250   1.2101   0.00777   0.00342  -0.1383  0.5178  1.0000  -1.5796   0.0000   0.0000   0.0000   0.3557
   5.500   1.2350   0.00801   0.00361  -0.1379  0.5021  1.0000  -1.6301   0.0000   0.0000   0.0000   0.3527
   5.750   1.2591   0.00830   0.00382  -0.1373  0.4861  1.0000  -1.6846   0.0000   0.0000   0.0000   0.3498
   6.000   1.2827   0.00860   0.00406  -0.1367  0.4687  1.0000  -1.7474   0.0000   0.0000   0.0000   0.3470
   6.250   1.3054   0.00894   0.00432  -0.1360  0.4503  1.0000  -1.8182   0.0000   0.0000   0.0000   0.3442
   6.500   1.3274   0.00931   0.00460  -0.1351  0.4314  1.0000  -1.8925   0.0000   0.0000   0.0000   0.3414
   6.750   1.3485   0.00971   0.00492  -0.1341  0.4120  1.0000  -1.9694   0.0000   0.0000   0.0000   0.3387
   7.000   1.3689   0.01012   0.00525  -0.1330  0.3933  1.0000  -2.0507   0.0000   0.0000   0.0000   0.3360
   7.250   1.3884   0.01057   0.00561  -0.1317  0.3742  1.0000  -2.1326   0.0000   0.0000   0.0000   0.3334
   7.500   1.4068   0.01103   0.00599  -0.1303  0.3560  1.0000  -2.2151   0.0000   0.0000   0.0000   0.3308
   7.750   1.4237   0.01147   0.00637  -0.1285  0.3395  1.0000  -2.2958   0.0000   0.0000   0.0000   0.3280
   8.000   1.4398   0.01198   0.00681  -0.1267  0.3235  1.0000  -2.3823   0.0000   0.0000   0.0000   0.3254
   8.250   1.4552   0.01254   0.00730  -0.1249  0.3067  1.0000  -2.4907   0.0000   0.0000   0.0000   0.3228
   8.500   1.4702   0.01315   0.00784  -0.1231  0.2898  1.0000  -2.5995   0.0000   0.0000   0.0000   0.3203
   8.750   1.4841   0.01385   0.00845  -0.1212  0.2725  1.0000  -2.7067   0.0000   0.0000   0.0000   0.3178
   9.000   1.4972   0.01461   0.00914  -0.1193  0.2556  1.0000  -2.8134   0.0000   0.0000   0.0000   0.3154
   9.250   1.5105   0.01539   0.00986  -0.1174  0.2392  1.0000  -2.9247   0.0000   0.0000   0.0000   0.3131
   9.500   1.5232   0.01624   0.01064  -0.1156  0.2235  1.0000  -3.0365   0.0000   0.0000   0.0000   0.3108
   9.750   1.5349   0.01718   0.01150  -0.1138  0.2080  1.0000  -3.1469   0.0000   0.0000   0.0000   0.3086
  10.000   1.5469   0.01812   0.01238  -0.1120  0.1932  1.0000  -3.2593   0.0000   0.0000   0.0000   0.3065
  10.250   1.5580   0.01914   0.01334  -0.1102  0.1793  1.0000  -3.3700   0.0000   0.0000   0.0000   0.3043
  10.500   1.5680   0.02025   0.01439  -0.1083  0.1648  1.0000  -3.4789   0.0000   0.0000   0.0000   0.3023
  10.750   1.5779   0.02139   0.01547  -0.1065  0.1515  1.0000  -3.5886   0.0000   0.0000   0.0000   0.3002
  11.000   1.5868   0.02262   0.01664  -0.1047  0.1386  1.0000  -3.6961   0.0000   0.0000   0.0000   0.2982
  11.250   1.5959   0.02385   0.01783  -0.1029  0.1269  1.0000  -3.8052   0.0000   0.0000   0.0000   0.2962
  11.500   1.6047   0.02512   0.01906  -0.1012  0.1163  1.0000  -3.9146   0.0000   0.0000   0.0000   0.2943
  11.750   1.6127   0.02647   0.02037  -0.0994  0.1066  1.0000  -4.0220   0.0000   0.0000   0.0000   0.2924
  12.000   1.6207   0.02785   0.02172  -0.0977  0.0979  1.0000  -4.1301   0.0000   0.0000   0.0000   0.2906
  12.250   1.6285   0.02925   0.02310  -0.0960  0.0899  1.0000  -4.2388   0.0000   0.0000   0.0000   0.2888
  12.500   1.6360   0.03070   0.02454  -0.0944  0.0826  1.0000  -4.3476   0.0000   0.0000   0.0000   0.2870
  12.750   1.6431   0.03221   0.02604  -0.0928  0.0762  1.0000  -4.4593   0.0000   0.0000   0.0000   0.2853
  13.000   1.6500   0.03377   0.02759  -0.0913  0.0705  1.0000  -4.5712   0.0000   0.0000   0.0000   0.2836
  13.250   1.6567   0.03539   0.02921  -0.0898  0.0654  1.0000  -4.6827   0.0000   0.0000   0.0000   0.2820
  13.500   1.6629   0.03708   0.03091  -0.0884  0.0608  1.0000  -4.7934   0.0000   0.0000   0.0000   0.2804
  13.750   1.6700   0.03874   0.03259  -0.0871  0.0568  1.0000  -4.9080   0.0000   0.0000   0.0000   0.2789
  14.000   1.6765   0.04047   0.03435  -0.0859  0.0534  1.0000  -5.0213   0.0000   0.0000   0.0000   0.2774
  14.250   1.6822   0.04233   0.03622  -0.0846  0.0503  1.0000  -5.1318   0.0000   0.0000   0.0000   0.2760
  14.500   1.6879   0.04421   0.03813  -0.0835  0.0474  1.0000  -5.2431   0.0000   0.0000   0.0000   0.2746
  14.750   1.6938   0.04611   0.04007  -0.0824  0.0448  1.0000  -5.3552   0.0000   0.0000   0.0000   0.2732
  15.000   1.6978   0.04821   0.04220  -0.0813  0.0424  1.0000  -5.4610   0.0000   0.0000   0.0000   0.2719
  15.250   1.7030   0.05026   0.04429  -0.0804  0.0400  1.0000  -5.5727   0.0000   0.0000   0.0000   0.2706
  15.500   1.7068   0.05246   0.04653  -0.0794  0.0379  1.0000  -5.7033   0.0000   0.0000   0.0000   0.2694
  15.750   1.7092   0.05484   0.04895  -0.0785  0.0357  1.0000  -5.8284   0.0000   0.0000   0.0000   0.2682
  16.000   1.7127   0.05716   0.05132  -0.0777  0.0336  1.0000  -5.9587   0.0000   0.0000   0.0000   0.2670
  16.250   1.7139   0.05975   0.05395  -0.0769  0.0317  1.0000  -6.0789   0.0000   0.0000   0.0000   0.2659
  16.500   1.7149   0.06240   0.05665  -0.0762  0.0298  1.0000  -6.1984   0.0000   0.0000   0.0000   0.2649
  16.750   1.7158   0.06513   0.05943  -0.0756  0.0280  1.0000  -6.3168   0.0000   0.0000   0.0000   0.2639
  17.000   1.7139   0.06820   0.06255  -0.0750  0.0266  1.0000  -6.4216   0.0000   0.0000   0.0000   0.2630
  17.250   1.7142   0.07107   0.06549  -0.0745  0.0252  1.0000  -6.5373   0.0000   0.0000   0.0000   0.2621
  17.500   1.7110   0.07441   0.06888  -0.0741  0.0241  1.0000  -6.6351   0.0000   0.0000   0.0000   0.2614
  17.750   1.7099   0.07752   0.07207  -0.0739  0.0231  1.0000  -6.7435   0.0000   0.0000   0.0000   0.2606
  18.000   1.7068   0.08093   0.07554  -0.0737  0.0222  1.0000  -6.8415   0.0000   0.0000   0.0000   0.2599
  18.250   1.7018   0.08464   0.07932  -0.0737  0.0215  1.0000  -6.9283   0.0000   0.0000   0.0000   0.2594
  18.500   1.7001   0.08797   0.08273  -0.0737  0.0208  1.0000  -7.0345   0.0000   0.0000   0.0000   0.2588
  18.750   1.6960   0.09163   0.08647  -0.0739  0.0202  1.0000  -7.1295   0.0000   0.0000   0.0000   0.2584
  19.000   1.6892   0.09572   0.09062  -0.0743  0.0197  1.0000  -7.2076   0.0000   0.0000   0.0000   0.2581
  19.250   1.6849   0.09953   0.09453  -0.0748  0.0192  1.0000  -7.2979   0.0000   0.0000   0.0000   0.2579
  19.500   1.6810   0.10329   0.09838  -0.0753  0.0187  1.0000  -7.3905   0.0000   0.0000   0.0000   0.2576
  19.750   1.6758   0.10729   0.10246  -0.0761  0.0183  1.0000  -7.4733   0.0000   0.0000   0.0000   0.2576
  20.000   1.6694   0.11151   0.10675  -0.0770  0.0180  1.0000  -7.5472   0.0000   0.0000   0.0000   0.2576


