xflr5 v6.61

 Calculated polar for: QX0026  thickness=14.08

 1 1 Reynolds number fixed          Mach number fixed         

 xtrf =   1.000 (top)        1.000 (bottom)
 Mach =   0.000     Re =     0.100 e 6     Ncrit =   9.000

  alpha     CL        CD       CDp       Cm    Top Xtr Bot Xtr   Cpmin    Chinge    XCp    
 ------- -------- --------- --------- -------- ------- ------- -------- --------- ---------
  -9.000  -0.2581   0.11423   0.10959  -0.0602  0.9703  0.1170  -1.5493   0.0000   0.0000   0.0000  -0.0066
  -8.750  -0.2461   0.11035   0.10571  -0.0633  0.9672  0.1198  -1.5395   0.0000   0.0000   0.0000  -0.0312
  -8.500  -0.2371   0.10782   0.10318  -0.0638  0.9623  0.1239  -1.5057   0.0000   0.0000   0.0000  -0.0433
  -8.250  -0.2691   0.10619   0.10164  -0.0687  0.9542  0.1272  -1.6715   0.0000   0.0000   0.0000  -0.0258
  -8.000  -0.2292   0.10193   0.09733  -0.0677  0.9528  0.1307  -1.5174   0.0000   0.0000   0.0000  -0.0689
  -7.750  -0.2364   0.09979   0.09522  -0.0696  0.9468  0.1356  -1.5586   0.0000   0.0000   0.0000  -0.0664
  -7.250  -0.2307   0.09492   0.09039  -0.0697  0.9365  0.1427  -1.5346   0.0000   0.0000   0.0000  -0.0733
  -7.000  -0.2681   0.09316   0.08872  -0.0729  0.9268  0.1463  -1.6767   0.0000   0.0000   0.0000  -0.0393
  -6.750  -0.2474   0.09056   0.08611  -0.0700  0.9237  0.1495  -1.5797   0.0000   0.0000   0.0000  -0.0511
  -6.500  -0.2597   0.08795   0.08353  -0.0734  0.9164  0.1558  -1.6382   0.0000   0.0000   0.0000  -0.0491
  -6.250  -0.2511   0.08493   0.08051  -0.0735  0.9118  0.1591  -1.6083   0.0000   0.0000   0.0000  -0.0594
  -5.750  -0.2454   0.07935   0.07492  -0.0763  0.9009  0.1703  -1.6038   0.0000   0.0000   0.0000  -0.0767
  -5.250  -0.2277   0.05662   0.05104  -0.1016  0.8901  0.1189  -2.1269   0.0000   0.0000   0.0000  -0.2136
  -5.000  -0.2141   0.05743   0.05205  -0.0991  0.8852  0.1302  -1.9747   0.0000   0.0000   0.0000  -0.2300
  -4.750  -0.1970   0.05851   0.05324  -0.0975  0.8802  0.1542  -1.8174   0.0000   0.0000   0.0000  -0.2626
  -4.500  -0.1765   0.05780   0.05250  -0.0982  0.8758  0.1790  -1.7156   0.0000   0.0000   0.0000  -0.3249
  -4.250  -0.1649   0.05773   0.05253  -0.0956  0.8704  0.1954  -1.6238   0.0000   0.0000   0.0000  -0.3482
  -3.750  -0.0266   0.03677   0.02774  -0.1182  0.8677  0.1094  -2.0317   0.0000   0.0000   0.0000  -4.3143
  -3.500  -0.0072   0.03641   0.02744  -0.1175  0.8620  0.1141  -1.9453   0.0000   0.0000   0.0000  -16.4435
  -3.250   0.0279   0.03572   0.02663  -0.1190  0.8580  0.1221  -1.8431   0.0000   0.0000   0.0000   4.6277
  -3.000   0.0556   0.03536   0.02623  -0.1194  0.8531  0.1310  -1.7491   0.0000   0.0000   0.0000   2.4500
  -2.750   0.0843   0.03504   0.02591  -0.1199  0.8481  0.1429  -1.6524   0.0000   0.0000   0.0000   1.7042
  -2.500   0.1267   0.03447   0.02540  -0.1224  0.8450  0.1638  -1.5344   0.0000   0.0000   0.0000   1.2361
  -2.250   0.1418   0.03456   0.02560  -0.1210  0.8380  0.1828  -1.4645   0.0000   0.0000   0.0000   1.1199
  -2.000   0.1841   0.03397   0.02526  -0.1236  0.8347  0.2329  -1.3433   0.0000   0.0000   0.0000   0.9330
  -1.750   0.2006   0.03407   0.02564  -0.1226  0.8276  0.2825  -1.2702   0.0000   0.0000   0.0000   0.8706
  -1.500   0.2409   0.03354   0.02558  -0.1249  0.8241  0.3810  -1.1465   0.0000   0.0000   0.0000   0.7754
  -1.250   0.2572   0.03371   0.02620  -0.1237  0.8169  0.4713  -1.0681   0.0000   0.0000   0.0000   0.7366
  -1.000   0.2917   0.03330   0.02642  -0.1240  0.8134  0.6319  -0.9558   0.0000   0.0000   0.0000   0.6792
  -0.750   0.2991   0.03370   0.02713  -0.1201  0.8056  0.7415  -0.8951   0.0000   0.0000   0.0000   0.6551
  -0.500   0.3184   0.03327   0.02698  -0.1161  0.8021  0.8838  -0.8137   0.0000   0.0000   0.0000   0.6171
  -0.250   0.3349   0.03380   0.02740  -0.1151  0.7934  1.0000  -0.7451   0.0000   0.0000   0.0000   0.5953
   0.000   0.3584   0.03448   0.02787  -0.1153  0.7860  1.0000  -0.6809   0.0000   0.0000   0.0000   0.5726
   0.250   0.3988   0.03466   0.02782  -0.1174  0.7817  1.0000  -0.7088   0.0000   0.0000   0.0000   0.5445
   0.500   0.4173   0.03544   0.02846  -0.1167  0.7734  1.0000  -0.7216   0.0000   0.0000   0.0000   0.5293
   1.000   0.4784   0.03622   0.02895  -0.1181  0.7613  1.0000  -0.7674   0.0000   0.0000   0.0000   0.4953
   1.250   0.4980   0.03696   0.02960  -0.1175  0.7529  1.0000  -0.7830   0.0000   0.0000   0.0000   0.4838
   1.500   0.5362   0.03701   0.02953  -0.1189  0.7486  1.0000  -0.8136   0.0000   0.0000   0.0000   0.4691
   1.750   0.5586   0.03760   0.03004  -0.1184  0.7406  1.0000  -0.8326   0.0000   0.0000   0.0000   0.4590
   2.250   0.6180   0.03817   0.03046  -0.1191  0.7281  1.0000  -0.8850   0.0000   0.0000   0.0000   0.4388
   2.500   0.6399   0.03873   0.03097  -0.1185  0.7198  1.0000  -0.9060   0.0000   0.0000   0.0000   0.4309
   2.750   0.6596   0.03941   0.03161  -0.1177  0.7110  1.0000  -0.9255   0.0000   0.0000   0.0000   0.4237
   3.000   0.7033   0.03887   0.03101  -0.1192  0.7082  1.0000  -0.9669   0.0000   0.0000   0.0000   0.4144
   3.250   0.7225   0.03951   0.03163  -0.1183  0.6991  1.0000  -0.9878   0.0000   0.0000   0.0000   0.4083
   3.500   0.7421   0.04014   0.03224  -0.1174  0.6901  1.0000  -1.0102   0.0000   0.0000   0.0000   0.4024
   4.000   0.7904   0.04084   0.03292  -0.1163  0.6743  1.0000  -1.0653   0.0000   0.0000   0.0000   0.3907
   4.250   0.8267   0.04036   0.03244  -0.1168  0.6695  1.0000  -1.1073   0.0000   0.0000   0.0000   0.3844
   4.750   0.8713   0.04108   0.03318  -0.1152  0.6524  1.0000  -1.1675   0.0000   0.0000   0.0000   0.3747
   5.000   0.9135   0.03996   0.03207  -0.1159  0.6492  1.0000  -1.2211   0.0000   0.0000   0.0000   0.3690
   5.250   0.9605   0.03834   0.03047  -0.1169  0.6476  1.0000  -1.2823   0.0000   0.0000   0.0000   0.3635
   5.750   1.0036   0.03868   0.03088  -0.1147  0.6297  1.0000  -1.3559   0.0000   0.0000   0.0000   0.3553
   6.000   1.0541   0.03647   0.02872  -0.1156  0.6286  1.0000  -1.4306   0.0000   0.0000   0.0000   0.3505
   6.500   1.1339   0.03391   0.02626  -0.1164  0.6185  1.0000  -1.5686   0.0000   0.0000   0.0000   0.3427
   7.500   1.2884   0.02945   0.02202  -0.1182  0.5883  1.0000  -1.9430   0.0000   0.0000   0.0000   0.3303
   7.750   1.3235   0.02862   0.02122  -0.1184  0.5781  1.0000  -2.0469   0.0000   0.0000   0.0000   0.3276
   8.000   1.3497   0.02829   0.02094  -0.1175  0.5659  1.0000  -2.1397   0.0000   0.0000   0.0000   0.3249
   8.250   1.3725   0.02815   0.02084  -0.1162  0.5523  1.0000  -2.2285   0.0000   0.0000   0.0000   0.3221
   8.500   1.4056   0.02753   0.02023  -0.1162  0.5391  1.0000  -2.3409   0.0000   0.0000   0.0000   0.3196
   8.750   1.4272   0.02750   0.02022  -0.1148  0.5240  1.0000  -2.4596   0.0000   0.0000   0.0000   0.3170
   9.000   1.4534   0.02730   0.01999  -0.1139  0.5082  1.0000  -2.5965   0.0000   0.0000   0.0000   0.3145
   9.250   1.4672   0.02763   0.02034  -0.1115  0.4914  1.0000  -2.7024   0.0000   0.0000   0.0000   0.3117
   9.500   1.4851   0.02782   0.02050  -0.1097  0.4744  1.0000  -2.8213   0.0000   0.0000   0.0000   0.3091
   9.750   1.5030   0.02809   0.02069  -0.1078  0.4568  1.0000  -2.9416   0.0000   0.0000   0.0000   0.3066
  10.000   1.5090   0.02886   0.02148  -0.1046  0.4392  1.0000  -3.0301   0.0000   0.0000   0.0000   0.3037
  10.250   1.5178   0.02961   0.02221  -0.1019  0.4216  1.0000  -3.1270   0.0000   0.0000   0.0000   0.3011
  10.500   1.5274   0.03039   0.02293  -0.0994  0.4040  1.0000  -3.2285   0.0000   0.0000   0.0000   0.2986
  10.750   1.5345   0.03132   0.02382  -0.0967  0.3866  1.0000  -3.3258   0.0000   0.0000   0.0000   0.2960
  11.000   1.5365   0.03255   0.02507  -0.0936  0.3693  1.0000  -3.4074   0.0000   0.0000   0.0000   0.2935
  11.250   1.5402   0.03378   0.02626  -0.0909  0.3522  1.0000  -3.4949   0.0000   0.0000   0.0000   0.2911
  11.500   1.5451   0.03500   0.02740  -0.0883  0.3354  1.0000  -3.5870   0.0000   0.0000   0.0000   0.2888
  11.750   1.5435   0.03665   0.02909  -0.0854  0.3186  1.0000  -3.6576   0.0000   0.0000   0.0000   0.2864
  12.000   1.5441   0.03827   0.03068  -0.0828  0.3022  1.0000  -3.7353   0.0000   0.0000   0.0000   0.2842
  12.250   1.5454   0.03990   0.03224  -0.0803  0.2861  1.0000  -3.8158   0.0000   0.0000   0.0000   0.2821
  12.500   1.5421   0.04193   0.03430  -0.0778  0.2701  1.0000  -3.8799   0.0000   0.0000   0.0000   0.2800
  12.750   1.5412   0.04388   0.03618  -0.0754  0.2547  1.0000  -3.9520   0.0000   0.0000   0.0000   0.2780
  13.000   1.5386   0.04603   0.03831  -0.0732  0.2394  1.0000  -4.0172   0.0000   0.0000   0.0000   0.2761
  13.250   1.5360   0.04828   0.04053  -0.0711  0.2249  1.0000  -4.0816   0.0000   0.0000   0.0000   0.2743
  13.500   1.5337   0.05057   0.04278  -0.0691  0.2109  1.0000  -4.1492   0.0000   0.0000   0.0000   0.2726
  13.750   1.5316   0.05295   0.04512  -0.0673  0.1977  1.0000  -4.2163   0.0000   0.0000   0.0000   0.2709
  14.000   1.5291   0.05547   0.04764  -0.0656  0.1852  1.0000  -4.2800   0.0000   0.0000   0.0000   0.2694
  14.250   1.5294   0.05780   0.04988  -0.0641  0.1736  1.0000  -4.3540   0.0000   0.0000   0.0000   0.2678
  14.500   1.5302   0.06017   0.05220  -0.0627  0.1629  1.0000  -4.4282   0.0000   0.0000   0.0000   0.2664
  14.750   1.5291   0.06280   0.05486  -0.0614  0.1531  1.0000  -4.4929   0.0000   0.0000   0.0000   0.2650
  15.000   1.5289   0.06539   0.05746  -0.0602  0.1440  1.0000  -4.5608   0.0000   0.0000   0.0000   0.2637
  15.250   1.5294   0.06794   0.06002  -0.0592  0.1357  1.0000  -4.6322   0.0000   0.0000   0.0000   0.2625
  15.500   1.5310   0.07042   0.06249  -0.0582  0.1281  1.0000  -4.7106   0.0000   0.0000   0.0000   0.2613
  15.750   1.5346   0.07272   0.06475  -0.0573  0.1209  1.0000  -4.7967   0.0000   0.0000   0.0000   0.2601
  16.000   1.5332   0.07563   0.06778  -0.0566  0.1148  1.0000  -4.8599   0.0000   0.0000   0.0000   0.2591
  16.250   1.5327   0.07855   0.07082  -0.0559  0.1091  1.0000  -4.9338   0.0000   0.0000   0.0000   0.2581
  16.500   1.5370   0.08093   0.07322  -0.0552  0.1036  1.0000  -5.0347   0.0000   0.0000   0.0000   0.2570
  16.750   1.5475   0.08259   0.07479  -0.0544  0.0981  1.0000  -5.1669   0.0000   0.0000   0.0000   0.2557
  17.000   1.5408   0.08635   0.07882  -0.0542  0.0942  1.0000  -5.2083   0.0000   0.0000   0.0000   0.2551
  17.250   1.5477   0.08855   0.08103  -0.0536  0.0899  1.0000  -5.3173   0.0000   0.0000   0.0000   0.2541
  17.500   1.5491   0.09138   0.08398  -0.0534  0.0861  1.0000  -5.3996   0.0000   0.0000   0.0000   0.2533
  17.750   1.5500   0.09441   0.08714  -0.0532  0.0829  1.0000  -5.4778   0.0000   0.0000   0.0000   0.2526
  18.000   1.5503   0.09747   0.09033  -0.0532  0.0798  1.0000  -5.5539   0.0000   0.0000   0.0000   0.2520
  18.250   1.5538   0.10026   0.09322  -0.0531  0.0771  1.0000  -5.6429   0.0000   0.0000   0.0000   0.2513
  18.500   1.5412   0.10513   0.09839  -0.0541  0.0753  1.0000  -5.6413   0.0000   0.0000   0.0000   0.2516
  18.750   1.5646   0.10537   0.09845  -0.0531  0.0720  1.0000  -5.8438   0.0000   0.0000   0.0000   0.2498
  19.000   1.5416   0.11164   0.10513  -0.0551  0.0712  1.0000  -5.7789   0.0000   0.0000   0.0000   0.2510
  19.250   1.5195   0.11816   0.11199  -0.0577  0.0705  1.0000  -5.7123   0.0000   0.0000   0.0000   0.2526
  19.500   1.4970   0.12512   0.11926  -0.0610  0.0699  1.0000  -5.6350   0.0000   0.0000   0.0000   0.2547
  19.750   1.4708   0.13309   0.12754  -0.0655  0.0695  1.0000  -5.5247   0.0000   0.0000   0.0000   0.2578
  20.000   1.4340   0.14363   0.13842  -0.0723  0.0698  1.0000  -5.3290   0.0000   0.0000   0.0000   0.2631


