xflr5 v6.61

 Calculated polar for: QX0026  thickness=14.08

 1 1 Reynolds number fixed          Mach number fixed         

 xtrf =   1.000 (top)        1.000 (bottom)
 Mach =   0.000     Re =     0.880 e 6     Ncrit =   9.000

  alpha     CL        CD       CDp       Cm    Top Xtr Bot Xtr   Cpmin    Chinge    XCp    
 ------- -------- --------- --------- -------- ------- ------- -------- --------- ---------
 -10.000  -0.4966   0.01763   0.01237  -0.1303  0.8158  0.0213  -6.4681   0.0000   0.0000   0.0000  -0.0315
  -9.750  -0.4704   0.01716   0.01184  -0.1305  0.8130  0.0217  -6.2241   0.0000   0.0000   0.0000  -0.0467
  -9.500  -0.4440   0.01660   0.01121  -0.1307  0.8097  0.0222  -5.9915   0.0000   0.0000   0.0000  -0.0640
  -9.250  -0.4175   0.01603   0.01053  -0.1308  0.8065  0.0227  -5.7678   0.0000   0.0000   0.0000  -0.0835
  -9.000  -0.3910   0.01543   0.00980  -0.1310  0.8036  0.0231  -5.5496   0.0000   0.0000   0.0000  -0.1055
  -8.750  -0.3644   0.01490   0.00927  -0.1312  0.8008  0.0236  -5.3191   0.0000   0.0000   0.0000  -0.1310
  -8.500  -0.3370   0.01451   0.00885  -0.1314  0.7975  0.0242  -5.0881   0.0000   0.0000   0.0000  -0.1617
  -8.250  -0.3095   0.01409   0.00834  -0.1315  0.7945  0.0248  -4.8780   0.0000   0.0000   0.0000  -0.1977
  -8.000  -0.2819   0.01369   0.00783  -0.1317  0.7919  0.0254  -4.6746   0.0000   0.0000   0.0000  -0.2410
  -7.750  -0.2548   0.01316   0.00731  -0.1319  0.7888  0.0260  -4.4691   0.0000   0.0000   0.0000  -0.2928
  -7.500  -0.2269   0.01282   0.00695  -0.1321  0.7857  0.0267  -4.2626   0.0000   0.0000   0.0000  -0.3592
  -7.250  -0.1987   0.01252   0.00656  -0.1322  0.7829  0.0275  -4.0710   0.0000   0.0000   0.0000  -0.4450
  -7.000  -0.1710   0.01210   0.00611  -0.1324  0.7803  0.0283  -3.8844   0.0000   0.0000   0.0000  -0.5571
  -6.750  -0.1428   0.01179   0.00580  -0.1327  0.7771  0.0292  -3.6939   0.0000   0.0000   0.0000  -0.7163
  -6.500  -0.1144   0.01152   0.00547  -0.1328  0.7741  0.0302  -3.5111   0.0000   0.0000   0.0000  -0.9561
  -6.250  -0.0863   0.01116   0.00509  -0.1331  0.7714  0.0313  -3.3394   0.0000   0.0000   0.0000  -1.3485
  -6.000  -0.0577   0.01093   0.00484  -0.1333  0.7685  0.0326  -3.1659   0.0000   0.0000   0.0000  -2.1401
  -5.750  -0.0292   0.01063   0.00452  -0.1335  0.7654  0.0339  -2.9994   0.0000   0.0000   0.0000  -4.4676
  -5.500  -0.0006   0.01041   0.00427  -0.1337  0.7625  0.0354  -2.8314   0.0000   0.0000   0.0000  -245.4912
  -5.000   0.0569   0.00997   0.00380  -0.1342  0.7567  0.0390  -2.5136   0.0000   0.0000   0.0000   2.6729
  -4.750   0.0857   0.00974   0.00356  -0.1344  0.7535  0.0411  -2.3630   0.0000   0.0000   0.0000   1.8598
  -4.500   0.1146   0.00957   0.00336  -0.1347  0.7507  0.0435  -2.2147   0.0000   0.0000   0.0000   1.4533
  -4.250   0.1435   0.00939   0.00317  -0.1349  0.7478  0.0463  -2.0681   0.0000   0.0000   0.0000   1.2115
  -4.000   0.1724   0.00919   0.00299  -0.1352  0.7444  0.0497  -1.9247   0.0000   0.0000   0.0000   1.0505
  -3.750   0.2013   0.00901   0.00282  -0.1354  0.7413  0.0539  -1.7891   0.0000   0.0000   0.0000   0.9355
  -3.500   0.2304   0.00887   0.00266  -0.1357  0.7383  0.0596  -1.6579   0.0000   0.0000   0.0000   0.8493
  -3.250   0.2593   0.00868   0.00252  -0.1359  0.7347  0.0681  -1.5294   0.0000   0.0000   0.0000   0.7826
  -3.000   0.2882   0.00850   0.00239  -0.1362  0.7314  0.0815  -1.4032   0.0000   0.0000   0.0000   0.7293
  -2.750   0.3172   0.00834   0.00228  -0.1365  0.7283  0.1018  -1.2810   0.0000   0.0000   0.0000   0.6858
  -2.500   0.3461   0.00816   0.00219  -0.1367  0.7244  0.1272  -1.1652   0.0000   0.0000   0.0000   0.6496
  -2.250   0.3750   0.00800   0.00212  -0.1370  0.7209  0.1550  -1.0516   0.0000   0.0000   0.0000   0.6189
  -2.000   0.4040   0.00787   0.00206  -0.1373  0.7175  0.1834  -0.9428   0.0000   0.0000   0.0000   0.5926
  -1.750   0.4329   0.00773   0.00201  -0.1376  0.7134  0.2115  -0.8395   0.0000   0.0000   0.0000   0.5698
  -1.500   0.4618   0.00761   0.00196  -0.1379  0.7098  0.2454  -0.7892   0.0000   0.0000   0.0000   0.5499
  -1.250   0.4908   0.00748   0.00194  -0.1382  0.7060  0.2814  -0.8076   0.0000   0.0000   0.0000   0.5323
  -1.000   0.5196   0.00733   0.00192  -0.1385  0.7018  0.3271  -0.8261   0.0000   0.0000   0.0000   0.5167
  -0.750   0.5484   0.00720   0.00190  -0.1388  0.6981  0.3811  -0.8456   0.0000   0.0000   0.0000   0.5028
  -0.500   0.5771   0.00701   0.00191  -0.1391  0.6935  0.4468  -0.8658   0.0000   0.0000   0.0000   0.4903
  -0.250   0.6056   0.00684   0.00192  -0.1393  0.6894  0.5214  -0.8861   0.0000   0.0000   0.0000   0.4789
   0.000   0.6342   0.00671   0.00196  -0.1395  0.6849  0.5834  -0.9072   0.0000   0.0000   0.0000   0.4684
   0.250   0.6625   0.00660   0.00200  -0.1396  0.6803  0.6430  -0.9293   0.0000   0.0000   0.0000   0.4588
   0.500   0.6908   0.00655   0.00204  -0.1397  0.6757  0.6912  -0.9520   0.0000   0.0000   0.0000   0.4499
   0.750   0.7191   0.00651   0.00208  -0.1398  0.6707  0.7282  -0.9750   0.0000   0.0000   0.0000   0.4417
   1.000   0.7471   0.00649   0.00212  -0.1397  0.6659  0.7612  -0.9991   0.0000   0.0000   0.0000   0.4340
   1.250   0.7749   0.00646   0.00217  -0.1397  0.6604  0.7925  -1.0241   0.0000   0.0000   0.0000   0.4269
   1.500   0.8021   0.00644   0.00222  -0.1395  0.6552  0.8252  -1.0491   0.0000   0.0000   0.0000   0.4202
   1.750   0.8287   0.00641   0.00227  -0.1391  0.6496  0.8593  -1.0748   0.0000   0.0000   0.0000   0.4139
   2.000   0.8533   0.00636   0.00232  -0.1382  0.6437  0.9029  -1.1005   0.0000   0.0000   0.0000   0.4077
   2.250   0.8804   0.00630   0.00232  -0.1379  0.6379  0.9727  -1.1286   0.0000   0.0000   0.0000   0.4019
   2.500   0.9114   0.00635   0.00235  -0.1386  0.6311  1.0000  -1.1595   0.0000   0.0000   0.0000   0.3971
   2.750   0.9397   0.00644   0.00241  -0.1388  0.6246  1.0000  -1.1902   0.0000   0.0000   0.0000   0.3924
   3.250   0.9958   0.00663   0.00254  -0.1390  0.6097  1.0000  -1.2542   0.0000   0.0000   0.0000   0.3837
   3.500   1.0236   0.00674   0.00262  -0.1391  0.6017  1.0000  -1.2885   0.0000   0.0000   0.0000   0.3796
   3.750   1.0511   0.00686   0.00271  -0.1391  0.5928  1.0000  -1.3251   0.0000   0.0000   0.0000   0.3758
   4.000   1.0783   0.00699   0.00280  -0.1391  0.5832  1.0000  -1.3619   0.0000   0.0000   0.0000   0.3721
   4.250   1.1053   0.00713   0.00291  -0.1390  0.5732  1.0000  -1.4023   0.0000   0.0000   0.0000   0.3685
   4.500   1.1320   0.00729   0.00303  -0.1389  0.5623  1.0000  -1.4437   0.0000   0.0000   0.0000   0.3651
   4.750   1.1582   0.00747   0.00317  -0.1387  0.5503  1.0000  -1.4857   0.0000   0.0000   0.0000   0.3618
   5.000   1.1839   0.00767   0.00332  -0.1384  0.5379  1.0000  -1.5317   0.0000   0.0000   0.0000   0.3587
   5.250   1.2095   0.00788   0.00348  -0.1381  0.5244  1.0000  -1.5788   0.0000   0.0000   0.0000   0.3556
   5.500   1.2342   0.00812   0.00367  -0.1377  0.5092  1.0000  -1.6291   0.0000   0.0000   0.0000   0.3526
   5.750   1.2585   0.00839   0.00388  -0.1372  0.4933  1.0000  -1.6837   0.0000   0.0000   0.0000   0.3497
   6.000   1.2818   0.00870   0.00412  -0.1365  0.4767  1.0000  -1.7461   0.0000   0.0000   0.0000   0.3469
   6.250   1.3046   0.00903   0.00438  -0.1357  0.4584  1.0000  -1.8167   0.0000   0.0000   0.0000   0.3441
   6.500   1.3266   0.00939   0.00466  -0.1349  0.4396  1.0000  -1.8910   0.0000   0.0000   0.0000   0.3413
   6.750   1.3476   0.00979   0.00497  -0.1338  0.4202  1.0000  -1.9677   0.0000   0.0000   0.0000   0.3386
   7.000   1.3679   0.01021   0.00531  -0.1327  0.4014  1.0000  -2.0487   0.0000   0.0000   0.0000   0.3359
   7.250   1.3873   0.01066   0.00567  -0.1314  0.3825  1.0000  -2.1302   0.0000   0.0000   0.0000   0.3333
   7.500   1.4054   0.01113   0.00606  -0.1299  0.3641  1.0000  -2.2119   0.0000   0.0000   0.0000   0.3306
   7.750   1.4216   0.01159   0.00645  -0.1281  0.3472  1.0000  -2.2915   0.0000   0.0000   0.0000   0.3279
   8.000   1.4380   0.01209   0.00689  -0.1263  0.3310  1.0000  -2.3770   0.0000   0.0000   0.0000   0.3252
   8.250   1.4532   0.01267   0.00739  -0.1245  0.3148  1.0000  -2.4847   0.0000   0.0000   0.0000   0.3227
   8.500   1.4681   0.01328   0.00794  -0.1227  0.2978  1.0000  -2.5932   0.0000   0.0000   0.0000   0.3201
   8.750   1.4822   0.01397   0.00856  -0.1208  0.2807  1.0000  -2.7009   0.0000   0.0000   0.0000   0.3177
   9.000   1.4954   0.01473   0.00925  -0.1189  0.2637  1.0000  -2.8075   0.0000   0.0000   0.0000   0.3153
   9.500   1.5209   0.01640   0.01078  -0.1152  0.2310  1.0000  -3.0283   0.0000   0.0000   0.0000   0.3107
   9.750   1.5327   0.01733   0.01164  -0.1134  0.2152  1.0000  -3.1388   0.0000   0.0000   0.0000   0.3085
  10.000   1.5438   0.01833   0.01257  -0.1116  0.2002  1.0000  -3.2487   0.0000   0.0000   0.0000   0.3063
  10.250   1.5554   0.01932   0.01351  -0.1098  0.1860  1.0000  -3.3607   0.0000   0.0000   0.0000   0.3042
  10.500   1.5651   0.02046   0.01457  -0.1079  0.1717  1.0000  -3.4686   0.0000   0.0000   0.0000   0.3021
  10.750   1.5749   0.02161   0.01567  -0.1061  0.1577  1.0000  -3.5777   0.0000   0.0000   0.0000   0.3001
  11.000   1.5837   0.02285   0.01685  -0.1043  0.1449  1.0000  -3.6849   0.0000   0.0000   0.0000   0.2981
  11.250   1.5925   0.02411   0.01806  -0.1025  0.1323  1.0000  -3.7928   0.0000   0.0000   0.0000   0.2961
  11.750   1.6091   0.02676   0.02063  -0.0990  0.1115  1.0000  -4.0083   0.0000   0.0000   0.0000   0.2923
  12.000   1.6169   0.02814   0.02199  -0.0973  0.1021  1.0000  -4.1159   0.0000   0.0000   0.0000   0.2904
  12.250   1.6242   0.02959   0.02341  -0.0956  0.0937  1.0000  -4.2224   0.0000   0.0000   0.0000   0.2886
  12.500   1.6311   0.03109   0.02489  -0.0939  0.0861  1.0000  -4.3287   0.0000   0.0000   0.0000   0.2869
  12.750   1.6379   0.03263   0.02643  -0.0923  0.0793  1.0000  -4.4388   0.0000   0.0000   0.0000   0.2852
  13.000   1.6447   0.03421   0.02801  -0.0908  0.0734  1.0000  -4.5498   0.0000   0.0000   0.0000   0.2835
  13.250   1.6514   0.03584   0.02964  -0.0893  0.0680  1.0000  -4.6612   0.0000   0.0000   0.0000   0.2819
  13.500   1.6579   0.03752   0.03132  -0.0880  0.0633  1.0000  -4.7727   0.0000   0.0000   0.0000   0.2803
  13.750   1.6641   0.03926   0.03308  -0.0866  0.0591  1.0000  -4.8836   0.0000   0.0000   0.0000   0.2788
  14.000   1.6695   0.04111   0.03494  -0.0853  0.0554  1.0000  -4.9921   0.0000   0.0000   0.0000   0.2773
  14.250   1.6757   0.04293   0.03679  -0.0841  0.0521  1.0000  -5.1040   0.0000   0.0000   0.0000   0.2759
  14.500   1.6815   0.04481   0.03871  -0.0830  0.0492  1.0000  -5.2151   0.0000   0.0000   0.0000   0.2745
  14.750   1.6856   0.04689   0.04081  -0.0819  0.0465  1.0000  -5.3204   0.0000   0.0000   0.0000   0.2731
  15.000   1.6911   0.04888   0.04284  -0.0809  0.0439  1.0000  -5.4309   0.0000   0.0000   0.0000   0.2718
  15.250   1.6953   0.05103   0.04503  -0.0799  0.0416  1.0000  -5.5366   0.0000   0.0000   0.0000   0.2705
  15.500   1.6982   0.05333   0.04737  -0.0789  0.0393  1.0000  -5.6602   0.0000   0.0000   0.0000   0.2693
  15.750   1.7020   0.05559   0.04968  -0.0781  0.0371  1.0000  -5.7909   0.0000   0.0000   0.0000   0.2681
  16.000   1.7035   0.05814   0.05226  -0.0772  0.0351  1.0000  -5.9110   0.0000   0.0000   0.0000   0.2670
  16.250   1.7056   0.06065   0.05483  -0.0765  0.0330  1.0000  -6.0347   0.0000   0.0000   0.0000   0.2659
  16.500   1.7067   0.06332   0.05755  -0.0758  0.0311  1.0000  -6.1536   0.0000   0.0000   0.0000   0.2649
  16.750   1.7056   0.06628   0.06055  -0.0752  0.0294  1.0000  -6.2617   0.0000   0.0000   0.0000   0.2640
  17.000   1.7062   0.06908   0.06342  -0.0747  0.0277  1.0000  -6.3786   0.0000   0.0000   0.0000   0.2630
  17.250   1.7032   0.07236   0.06675  -0.0742  0.0264  1.0000  -6.4763   0.0000   0.0000   0.0000   0.2622
  17.500   1.7027   0.07540   0.06986  -0.0739  0.0251  1.0000  -6.5869   0.0000   0.0000   0.0000   0.2614
  17.750   1.6984   0.07893   0.07345  -0.0737  0.0242  1.0000  -6.6779   0.0000   0.0000   0.0000   0.2608
  18.000   1.6963   0.08225   0.07685  -0.0736  0.0233  1.0000  -6.7790   0.0000   0.0000   0.0000   0.2601
  18.250   1.6931   0.08575   0.08043  -0.0736  0.0224  1.0000  -6.8749   0.0000   0.0000   0.0000   0.2596
  18.500   1.6866   0.08973   0.08447  -0.0737  0.0218  1.0000  -6.9520   0.0000   0.0000   0.0000   0.2592
  18.750   1.6835   0.09330   0.08813  -0.0739  0.0211  1.0000  -7.0494   0.0000   0.0000   0.0000   0.2587
  19.000   1.6799   0.09698   0.09189  -0.0743  0.0205  1.0000  -7.1450   0.0000   0.0000   0.0000   0.2584
  19.250   1.6742   0.10100   0.09598  -0.0749  0.0200  1.0000  -7.2268   0.0000   0.0000   0.0000   0.2582
  19.500   1.6656   0.10547   0.10053  -0.0757  0.0196  1.0000  -7.2885   0.0000   0.0000   0.0000   0.2583
  19.750   1.6618   0.10930   0.10446  -0.0764  0.0191  1.0000  -7.3776   0.0000   0.0000   0.0000   0.2582
  20.000   1.6572   0.11328   0.10853  -0.0774  0.0187  1.0000  -7.4607   0.0000   0.0000   0.0000   0.2582


