xflr5 v6.61

 Calculated polar for: QX0026  thickness=14.08

 1 1 Reynolds number fixed          Mach number fixed         

 xtrf =   1.000 (top)        1.000 (bottom)
 Mach =   0.000     Re =     0.260 e 6     Ncrit =   9.000

  alpha     CL        CD       CDp       Cm    Top Xtr Bot Xtr   Cpmin    Chinge    XCp    
 ------- -------- --------- --------- -------- ------- ------- -------- --------- ---------
  -8.250  -0.1353   0.07079   0.06734  -0.1050  0.8769  0.0669  -1.9766   0.0000   0.0000   0.0000  -0.5687
  -8.000  -0.1218   0.06921   0.06576  -0.1046  0.8721  0.0679  -1.8854   0.0000   0.0000   0.0000  -0.6544
  -7.750  -0.1190   0.06594   0.06247  -0.1073  0.8676  0.0698  -1.8967   0.0000   0.0000   0.0000  -0.6963
  -7.250  -0.1710   0.02621   0.02005  -0.1396  0.8531  0.0451  -3.4163   0.0000   0.0000   0.0000  -0.6002
  -7.000  -0.1482   0.02441   0.01786  -0.1395  0.8491  0.0461  -3.3348   0.0000   0.0000   0.0000  -0.7296
  -6.750  -0.1236   0.02284   0.01586  -0.1394  0.8462  0.0474  -3.2381   0.0000   0.0000   0.0000  -0.9227
  -6.500  -0.0980   0.02206   0.01511  -0.1394  0.8425  0.0486  -3.0911   0.0000   0.0000   0.0000  -1.2256
  -6.250  -0.0723   0.02114   0.01399  -0.1393  0.8386  0.0502  -2.9722   0.0000   0.0000   0.0000  -1.7460
  -6.000  -0.0456   0.02019   0.01284  -0.1392  0.8358  0.0520  -2.8477   0.0000   0.0000   0.0000  -2.9096
  -5.750  -0.0191   0.01958   0.01222  -0.1391  0.8325  0.0539  -2.7101   0.0000   0.0000   0.0000  -7.2900
  -5.500   0.0072   0.01892   0.01138  -0.1390  0.8283  0.0562  -2.5974   0.0000   0.0000   0.0000  20.0706
  -5.250   0.0344   0.01832   0.01082  -0.1390  0.8254  0.0587  -2.4584   0.0000   0.0000   0.0000   4.4059
  -5.000   0.0618   0.01773   0.01014  -0.1389  0.8226  0.0616  -2.3332   0.0000   0.0000   0.0000   2.5596
  -4.750   0.0878   0.01735   0.00978  -0.1387  0.8181  0.0650  -2.2088   0.0000   0.0000   0.0000   1.8727
  -4.500   0.1152   0.01683   0.00927  -0.1387  0.8151  0.0687  -2.0862   0.0000   0.0000   0.0000   1.4848
  -4.250   0.1436   0.01635   0.00875  -0.1388  0.8128  0.0735  -1.9631   0.0000   0.0000   0.0000   1.2398
  -4.000   0.1692   0.01609   0.00852  -0.1386  0.8079  0.0790  -1.8462   0.0000   0.0000   0.0000   1.0875
  -3.750   0.1970   0.01569   0.00814  -0.1386  0.8047  0.0862  -1.7276   0.0000   0.0000   0.0000   0.9687
  -3.500   0.2256   0.01526   0.00775  -0.1388  0.8024  0.0960  -1.6112   0.0000   0.0000   0.0000   0.8772
  -3.250   0.2516   0.01503   0.00760  -0.1387  0.7975  0.1104  -1.5034   0.0000   0.0000   0.0000   0.8113
  -3.000   0.2797   0.01464   0.00732  -0.1389  0.7942  0.1349  -1.3906   0.0000   0.0000   0.0000   0.7547
  -2.750   0.3088   0.01424   0.00706  -0.1392  0.7918  0.1739  -1.2780   0.0000   0.0000   0.0000   0.7073
  -2.500   0.3348   0.01409   0.00707  -0.1392  0.7869  0.2162  -1.1731   0.0000   0.0000   0.0000   0.6711
  -2.250   0.3632   0.01383   0.00694  -0.1394  0.7835  0.2629  -1.0635   0.0000   0.0000   0.0000   0.6381
  -2.000   0.3926   0.01352   0.00677  -0.1397  0.7811  0.3155  -0.9569   0.0000   0.0000   0.0000   0.6093
  -1.750   0.4183   0.01340   0.00688  -0.1396  0.7758  0.3759  -0.8612   0.0000   0.0000   0.0000   0.5864
  -1.500   0.4465   0.01308   0.00680  -0.1397  0.7725  0.4533  -0.7690   0.0000   0.0000   0.0000   0.5649
  -1.250   0.4744   0.01280   0.00677  -0.1396  0.7694  0.5430  -0.7872   0.0000   0.0000   0.0000   0.5457
  -1.000   0.4992   0.01268   0.00693  -0.1390  0.7643  0.6229  -0.8039   0.0000   0.0000   0.0000   0.5293
  -0.750   0.5263   0.01249   0.00689  -0.1385  0.7612  0.6954  -0.8232   0.0000   0.0000   0.0000   0.5134
  -0.500   0.5508   0.01245   0.00698  -0.1375  0.7567  0.7501  -0.8411   0.0000   0.0000   0.0000   0.4995
  -0.250   0.5754   0.01234   0.00698  -0.1365  0.7525  0.7983  -0.8596   0.0000   0.0000   0.0000   0.4865
   0.000   0.6006   0.01216   0.00683  -0.1353  0.7496  0.8451  -0.8796   0.0000   0.0000   0.0000   0.4741
   0.250   0.6196   0.01215   0.00694  -0.1331  0.7439  0.8927  -0.8961   0.0000   0.0000   0.0000   0.4633
   0.500   0.6510   0.01193   0.00672  -0.1332  0.7405  0.9545  -0.9207   0.0000   0.0000   0.0000   0.4527
   0.750   0.6875   0.01194   0.00667  -0.1351  0.7356  1.0000  -0.9480   0.0000   0.0000   0.0000   0.4443
   1.000   0.7173   0.01194   0.00658  -0.1356  0.7312  1.0000  -0.9730   0.0000   0.0000   0.0000   0.4364
   1.250   0.7469   0.01196   0.00653  -0.1360  0.7269  1.0000  -0.9987   0.0000   0.0000   0.0000   0.4291
   1.500   0.7751   0.01201   0.00652  -0.1361  0.7216  1.0000  -1.0239   0.0000   0.0000   0.0000   0.4223
   1.750   0.8053   0.01199   0.00642  -0.1366  0.7176  1.0000  -1.0517   0.0000   0.0000   0.0000   0.4158
   2.000   0.8325   0.01206   0.00647  -0.1365  0.7116  1.0000  -1.0785   0.0000   0.0000   0.0000   0.4099
   2.250   0.8624   0.01204   0.00638  -0.1368  0.7072  1.0000  -1.1081   0.0000   0.0000   0.0000   0.4043
   2.500   0.8897   0.01210   0.00642  -0.1368  0.7011  1.0000  -1.1363   0.0000   0.0000   0.0000   0.3990
   2.750   0.9182   0.01212   0.00640  -0.1369  0.6957  1.0000  -1.1669   0.0000   0.0000   0.0000   0.3940
   3.000   0.9466   0.01213   0.00638  -0.1369  0.6899  1.0000  -1.1986   0.0000   0.0000   0.0000   0.3893
   3.250   0.9737   0.01219   0.00643  -0.1368  0.6835  1.0000  -1.2300   0.0000   0.0000   0.0000   0.3848
   3.500   1.0035   0.01216   0.00633  -0.1371  0.6783  1.0000  -1.2654   0.0000   0.0000   0.0000   0.3806
   3.750   1.0294   0.01224   0.00644  -0.1368  0.6707  1.0000  -1.3002   0.0000   0.0000   0.0000   0.3765
   4.000   1.0566   0.01229   0.00647  -0.1366  0.6638  1.0000  -1.3367   0.0000   0.0000   0.0000   0.3726
   4.250   1.0855   0.01229   0.00642  -0.1367  0.6575  1.0000  -1.3776   0.0000   0.0000   0.0000   0.3689
   4.500   1.1114   0.01237   0.00651  -0.1364  0.6492  1.0000  -1.4176   0.0000   0.0000   0.0000   0.3653
   4.750   1.1373   0.01244   0.00660  -0.1360  0.6408  1.0000  -1.4592   0.0000   0.0000   0.0000   0.3619
   5.000   1.1633   0.01252   0.00668  -0.1357  0.6320  1.0000  -1.5035   0.0000   0.0000   0.0000   0.3586
   5.250   1.1891   0.01260   0.00676  -0.1353  0.6227  1.0000  -1.5507   0.0000   0.0000   0.0000   0.3554
   5.500   1.2144   0.01270   0.00685  -0.1348  0.6128  1.0000  -1.5995   0.0000   0.0000   0.0000   0.3522
   5.750   1.2393   0.01282   0.00697  -0.1343  0.6023  1.0000  -1.6535   0.0000   0.0000   0.0000   0.3492
   6.000   1.2637   0.01296   0.00711  -0.1337  0.5911  1.0000  -1.7141   0.0000   0.0000   0.0000   0.3463
   6.250   1.2877   0.01313   0.00725  -0.1330  0.5793  1.0000  -1.7817   0.0000   0.0000   0.0000   0.3434
   6.500   1.3111   0.01332   0.00742  -0.1322  0.5670  1.0000  -1.8568   0.0000   0.0000   0.0000   0.3406
   6.750   1.3328   0.01356   0.00768  -0.1312  0.5529  1.0000  -1.9319   0.0000   0.0000   0.0000   0.3378
   7.000   1.3543   0.01382   0.00791  -0.1301  0.5386  1.0000  -2.0106   0.0000   0.0000   0.0000   0.3351
   7.250   1.3742   0.01414   0.00821  -0.1288  0.5231  1.0000  -2.0906   0.0000   0.0000   0.0000   0.3324
   7.500   1.3932   0.01450   0.00851  -0.1273  0.5073  1.0000  -2.1711   0.0000   0.0000   0.0000   0.3296
   7.750   1.4102   0.01491   0.00891  -0.1255  0.4899  1.0000  -2.2507   0.0000   0.0000   0.0000   0.3269
   8.000   1.4257   0.01538   0.00933  -0.1236  0.4724  1.0000  -2.3290   0.0000   0.0000   0.0000   0.3241
   8.250   1.4382   0.01591   0.00980  -0.1211  0.4551  1.0000  -2.4174   0.0000   0.0000   0.0000   0.3212
   8.500   1.4493   0.01652   0.01036  -0.1184  0.4377  1.0000  -2.5151   0.0000   0.0000   0.0000   0.3184
   8.750   1.4600   0.01721   0.01101  -0.1159  0.4203  1.0000  -2.6127   0.0000   0.0000   0.0000   0.3156
   9.000   1.4699   0.01799   0.01174  -0.1134  0.4033  1.0000  -2.7092   0.0000   0.0000   0.0000   0.3130
   9.250   1.4791   0.01886   0.01255  -0.1109  0.3866  1.0000  -2.8048   0.0000   0.0000   0.0000   0.3104
   9.500   1.4883   0.01978   0.01345  -0.1086  0.3698  1.0000  -2.9012   0.0000   0.0000   0.0000   0.3079
   9.750   1.4967   0.02081   0.01443  -0.1062  0.3538  1.0000  -2.9962   0.0000   0.0000   0.0000   0.3055
  10.000   1.5047   0.02190   0.01549  -0.1040  0.3376  1.0000  -3.0927   0.0000   0.0000   0.0000   0.3032
  10.250   1.5124   0.02306   0.01663  -0.1018  0.3216  1.0000  -3.1905   0.0000   0.0000   0.0000   0.3009
  10.500   1.5188   0.02435   0.01788  -0.0996  0.3061  1.0000  -3.2856   0.0000   0.0000   0.0000   0.2987
  10.750   1.5257   0.02566   0.01917  -0.0976  0.2902  1.0000  -3.3825   0.0000   0.0000   0.0000   0.2966
  11.000   1.5310   0.02712   0.02059  -0.0954  0.2751  1.0000  -3.4755   0.0000   0.0000   0.0000   0.2946
  11.250   1.5365   0.02861   0.02206  -0.0935  0.2595  1.0000  -3.5695   0.0000   0.0000   0.0000   0.2926
  11.500   1.5408   0.03023   0.02365  -0.0914  0.2444  1.0000  -3.6604   0.0000   0.0000   0.0000   0.2906
  11.750   1.5441   0.03196   0.02535  -0.0895  0.2292  1.0000  -3.7487   0.0000   0.0000   0.0000   0.2887
  12.000   1.5473   0.03375   0.02711  -0.0876  0.2140  1.0000  -3.8369   0.0000   0.0000   0.0000   0.2869
  12.250   1.5485   0.03574   0.02905  -0.0856  0.1995  1.0000  -3.9190   0.0000   0.0000   0.0000   0.2851
  12.500   1.5508   0.03772   0.03101  -0.0839  0.1845  1.0000  -4.0046   0.0000   0.0000   0.0000   0.2833
  12.750   1.5516   0.03989   0.03314  -0.0822  0.1707  1.0000  -4.0854   0.0000   0.0000   0.0000   0.2817
  13.000   1.5525   0.04213   0.03534  -0.0806  0.1573  1.0000  -4.1664   0.0000   0.0000   0.0000   0.2801
  13.250   1.5525   0.04451   0.03770  -0.0791  0.1455  1.0000  -4.2459   0.0000   0.0000   0.0000   0.2786
  13.500   1.5536   0.04686   0.04005  -0.0777  0.1341  1.0000  -4.3302   0.0000   0.0000   0.0000   0.2772
  13.750   1.5536   0.04937   0.04255  -0.0764  0.1242  1.0000  -4.4104   0.0000   0.0000   0.0000   0.2758
  14.000   1.5532   0.05199   0.04516  -0.0752  0.1154  1.0000  -4.4887   0.0000   0.0000   0.0000   0.2745
  14.250   1.5526   0.05468   0.04787  -0.0741  0.1075  1.0000  -4.5659   0.0000   0.0000   0.0000   0.2733
  14.500   1.5520   0.05744   0.05064  -0.0731  0.1005  1.0000  -4.6425   0.0000   0.0000   0.0000   0.2721
  14.750   1.5512   0.06027   0.05350  -0.0722  0.0943  1.0000  -4.7178   0.0000   0.0000   0.0000   0.2710
  15.000   1.5499   0.06322   0.05648  -0.0714  0.0889  1.0000  -4.7904   0.0000   0.0000   0.0000   0.2700
  15.250   1.5469   0.06641   0.05967  -0.0707  0.0844  1.0000  -4.8568   0.0000   0.0000   0.0000   0.2690
  15.500   1.5468   0.06934   0.06267  -0.0702  0.0796  1.0000  -4.9324   0.0000   0.0000   0.0000   0.2681
  15.750   1.5453   0.07246   0.06585  -0.0697  0.0755  1.0000  -5.0036   0.0000   0.0000   0.0000   0.2673
  16.000   1.5414   0.07590   0.06929  -0.0693  0.0722  1.0000  -5.0680   0.0000   0.0000   0.0000   0.2666
  16.250   1.5413   0.07896   0.07246  -0.0690  0.0684  1.0000  -5.1496   0.0000   0.0000   0.0000   0.2658
  16.500   1.5379   0.08244   0.07596  -0.0688  0.0655  1.0000  -5.2269   0.0000   0.0000   0.0000   0.2652
  16.750   1.5365   0.08572   0.07932  -0.0688  0.0623  1.0000  -5.3125   0.0000   0.0000   0.0000   0.2646
  17.000   1.5336   0.08921   0.08285  -0.0688  0.0597  1.0000  -5.3896   0.0000   0.0000   0.0000   0.2641
  17.250   1.5317   0.09263   0.08635  -0.0689  0.0570  1.0000  -5.4717   0.0000   0.0000   0.0000   0.2637
  17.500   1.5292   0.09611   0.08988  -0.0691  0.0545  1.0000  -5.5520   0.0000   0.0000   0.0000   0.2633
  17.750   1.5274   0.09957   0.09340  -0.0695  0.0521  1.0000  -5.6358   0.0000   0.0000   0.0000   0.2630
  18.000   1.5256   0.10299   0.09688  -0.0698  0.0500  1.0000  -5.7174   0.0000   0.0000   0.0000   0.2626
  18.250   1.5245   0.10639   0.10034  -0.0704  0.0479  1.0000  -5.8023   0.0000   0.0000   0.0000   0.2624
  18.500   1.5240   0.10957   0.10354  -0.0708  0.0461  1.0000  -5.8904   0.0000   0.0000   0.0000   0.2621
  18.750   1.5237   0.11289   0.10697  -0.0715  0.0442  1.0000  -5.9749   0.0000   0.0000   0.0000   0.2619
  19.000   1.5260   0.11557   0.10960  -0.0719  0.0428  1.0000  -6.0810   0.0000   0.0000   0.0000   0.2615
  19.250   1.5257   0.11894   0.11312  -0.0728  0.0412  1.0000  -6.1607   0.0000   0.0000   0.0000   0.2614
  19.500   1.5277   0.12186   0.11607  -0.0736  0.0399  1.0000  -6.2598   0.0000   0.0000   0.0000   0.2612
  19.750   1.5330   0.12396   0.11814  -0.0739  0.0387  1.0000  -6.3821   0.0000   0.0000   0.0000   0.2606
  20.000   1.5326   0.12742   0.12177  -0.0751  0.0375  1.0000  -6.4574   0.0000   0.0000   0.0000   0.2607


