xflr5 v6.61

 Calculated polar for: QX0026  thickness=14.08

 1 1 Reynolds number fixed          Mach number fixed         

 xtrf =   1.000 (top)        1.000 (bottom)
 Mach =   0.000     Re =     0.860 e 6     Ncrit =   9.000

  alpha     CL        CD       CDp       Cm    Top Xtr Bot Xtr   Cpmin    Chinge    XCp    
 ------- -------- --------- --------- -------- ------- ------- -------- --------- ---------
 -10.000  -0.4955   0.01792   0.01268  -0.1304  0.8170  0.0214  -6.4472   0.0000   0.0000   0.0000  -0.0323
  -9.750  -0.4694   0.01741   0.01210  -0.1306  0.8140  0.0219  -6.2067   0.0000   0.0000   0.0000  -0.0475
  -9.500  -0.4432   0.01683   0.01142  -0.1307  0.8110  0.0223  -5.9785   0.0000   0.0000   0.0000  -0.0647
  -9.250  -0.4167   0.01623   0.01069  -0.1309  0.8077  0.0228  -5.7583   0.0000   0.0000   0.0000  -0.0842
  -9.000  -0.3907   0.01554   0.00993  -0.1310  0.8046  0.0233  -5.5404   0.0000   0.0000   0.0000  -0.1059
  -8.750  -0.3638   0.01511   0.00946  -0.1312  0.8019  0.0238  -5.3067   0.0000   0.0000   0.0000  -0.1318
  -8.500  -0.3364   0.01469   0.00901  -0.1314  0.7987  0.0243  -5.0784   0.0000   0.0000   0.0000  -0.1625
  -8.250  -0.3090   0.01425   0.00848  -0.1316  0.7956  0.0250  -4.8706   0.0000   0.0000   0.0000  -0.1986
  -8.000  -0.2819   0.01373   0.00788  -0.1317  0.7928  0.0255  -4.6703   0.0000   0.0000   0.0000  -0.2412
  -7.750  -0.2544   0.01331   0.00745  -0.1319  0.7900  0.0261  -4.4606   0.0000   0.0000   0.0000  -0.2938
  -7.500  -0.2265   0.01296   0.00707  -0.1321  0.7868  0.0269  -4.2555   0.0000   0.0000   0.0000  -0.3604
  -7.250  -0.1983   0.01267   0.00668  -0.1323  0.7839  0.0277  -4.0655   0.0000   0.0000   0.0000  -0.4467
  -7.000  -0.1708   0.01222   0.00622  -0.1325  0.7813  0.0285  -3.8779   0.0000   0.0000   0.0000  -0.5586
  -6.750  -0.1426   0.01191   0.00590  -0.1327  0.7783  0.0294  -3.6888   0.0000   0.0000   0.0000  -0.7183
  -6.500  -0.1141   0.01165   0.00556  -0.1329  0.7751  0.0304  -3.5070   0.0000   0.0000   0.0000  -0.9595
  -6.250  -0.0861   0.01126   0.00518  -0.1331  0.7723  0.0315  -3.3345   0.0000   0.0000   0.0000  -1.3522
  -6.000  -0.0575   0.01105   0.00491  -0.1333  0.7697  0.0328  -3.1624   0.0000   0.0000   0.0000  -2.1485
  -5.750  -0.0291   0.01073   0.00459  -0.1335  0.7665  0.0341  -2.9957   0.0000   0.0000   0.0000  -4.4849
  -5.500  -0.0004   0.01050   0.00435  -0.1337  0.7635  0.0357  -2.8287   0.0000   0.0000   0.0000  -313.5688
  -5.250   0.0282   0.01025   0.00405  -0.1340  0.7608  0.0373  -2.6665   0.0000   0.0000   0.0000   5.1471
  -5.000   0.0570   0.01007   0.00386  -0.1342  0.7578  0.0393  -2.5115   0.0000   0.0000   0.0000   2.6693
  -4.750   0.0857   0.00982   0.00362  -0.1345  0.7546  0.0414  -2.3609   0.0000   0.0000   0.0000   1.8593
  -4.500   0.1146   0.00963   0.00340  -0.1347  0.7517  0.0438  -2.2135   0.0000   0.0000   0.0000   1.4537
  -4.250   0.1435   0.00947   0.00322  -0.1349  0.7489  0.0466  -2.0667   0.0000   0.0000   0.0000   1.2113
  -4.000   0.1724   0.00927   0.00304  -0.1352  0.7455  0.0500  -1.9236   0.0000   0.0000   0.0000   1.0506
  -3.750   0.2013   0.00908   0.00286  -0.1354  0.7422  0.0543  -1.7882   0.0000   0.0000   0.0000   0.9356
  -3.500   0.2304   0.00894   0.00270  -0.1357  0.7394  0.0601  -1.6572   0.0000   0.0000   0.0000   0.8494
  -3.250   0.2593   0.00875   0.00256  -0.1359  0.7359  0.0687  -1.5289   0.0000   0.0000   0.0000   0.7828
  -3.000   0.2882   0.00856   0.00243  -0.1362  0.7324  0.0824  -1.4029   0.0000   0.0000   0.0000   0.7295
  -2.750   0.3171   0.00839   0.00231  -0.1365  0.7293  0.1029  -1.2808   0.0000   0.0000   0.0000   0.6859
  -2.500   0.3460   0.00821   0.00223  -0.1368  0.7256  0.1286  -1.1651   0.0000   0.0000   0.0000   0.6497
  -2.250   0.3749   0.00806   0.00216  -0.1370  0.7219  0.1566  -1.0516   0.0000   0.0000   0.0000   0.6190
  -2.000   0.4039   0.00793   0.00209  -0.1373  0.7187  0.1853  -0.9427   0.0000   0.0000   0.0000   0.5927
  -1.750   0.4328   0.00779   0.00205  -0.1376  0.7146  0.2139  -0.8396   0.0000   0.0000   0.0000   0.5699
  -1.500   0.4617   0.00765   0.00200  -0.1379  0.7107  0.2482  -0.7891   0.0000   0.0000   0.0000   0.5500
  -1.250   0.4907   0.00754   0.00197  -0.1382  0.7072  0.2846  -0.8075   0.0000   0.0000   0.0000   0.5324
  -1.000   0.5195   0.00738   0.00195  -0.1385  0.7029  0.3313  -0.8260   0.0000   0.0000   0.0000   0.5168
  -0.750   0.5482   0.00723   0.00193  -0.1388  0.6990  0.3865  -0.8455   0.0000   0.0000   0.0000   0.5028
  -0.500   0.5769   0.00705   0.00194  -0.1391  0.6947  0.4529  -0.8656   0.0000   0.0000   0.0000   0.4903
  -0.250   0.6055   0.00688   0.00196  -0.1393  0.6904  0.5277  -0.8860   0.0000   0.0000   0.0000   0.4789
   0.000   0.6340   0.00676   0.00199  -0.1395  0.6862  0.5892  -0.9070   0.0000   0.0000   0.0000   0.4685
   0.250   0.6623   0.00665   0.00204  -0.1396  0.6813  0.6492  -0.9292   0.0000   0.0000   0.0000   0.4589
   0.500   0.6905   0.00660   0.00207  -0.1397  0.6770  0.6955  -0.9518   0.0000   0.0000   0.0000   0.4499
   0.750   0.7188   0.00655   0.00212  -0.1397  0.6718  0.7322  -0.9748   0.0000   0.0000   0.0000   0.4417
   1.000   0.7467   0.00654   0.00216  -0.1397  0.6672  0.7654  -0.9989   0.0000   0.0000   0.0000   0.4340
   1.250   0.7745   0.00650   0.00220  -0.1396  0.6616  0.7965  -1.0238   0.0000   0.0000   0.0000   0.4269
   1.500   0.8016   0.00649   0.00225  -0.1394  0.6565  0.8298  -1.0487   0.0000   0.0000   0.0000   0.4202
   1.750   0.8280   0.00645   0.00230  -0.1389  0.6507  0.8644  -1.0743   0.0000   0.0000   0.0000   0.4138
   2.000   0.8521   0.00640   0.00235  -0.1380  0.6451  0.9102  -1.0998   0.0000   0.0000   0.0000   0.4076
   2.250   0.8824   0.00633   0.00233  -0.1383  0.6390  0.9975  -1.1299   0.0000   0.0000   0.0000   0.4021
   2.500   0.9112   0.00640   0.00238  -0.1386  0.6324  1.0000  -1.1593   0.0000   0.0000   0.0000   0.3971
   2.750   0.9394   0.00650   0.00243  -0.1387  0.6261  1.0000  -1.1899   0.0000   0.0000   0.0000   0.3924
   3.000   0.9675   0.00659   0.00249  -0.1389  0.6188  1.0000  -1.2217   0.0000   0.0000   0.0000   0.3879
   3.250   0.9956   0.00668   0.00257  -0.1390  0.6111  1.0000  -1.2540   0.0000   0.0000   0.0000   0.3837
   3.500   1.0234   0.00679   0.00264  -0.1390  0.6033  1.0000  -1.2883   0.0000   0.0000   0.0000   0.3796
   3.750   1.0508   0.00691   0.00273  -0.1390  0.5946  1.0000  -1.3248   0.0000   0.0000   0.0000   0.3758
   4.000   1.0780   0.00704   0.00283  -0.1390  0.5850  1.0000  -1.3616   0.0000   0.0000   0.0000   0.3721
   4.250   1.1050   0.00718   0.00294  -0.1389  0.5751  1.0000  -1.4019   0.0000   0.0000   0.0000   0.3685
   4.500   1.1316   0.00734   0.00306  -0.1388  0.5643  1.0000  -1.4433   0.0000   0.0000   0.0000   0.3651
   4.750   1.1579   0.00751   0.00319  -0.1386  0.5524  1.0000  -1.4855   0.0000   0.0000   0.0000   0.3618
   5.000   1.1837   0.00771   0.00334  -0.1384  0.5398  1.0000  -1.5315   0.0000   0.0000   0.0000   0.3587
   5.250   1.2090   0.00793   0.00351  -0.1380  0.5268  1.0000  -1.5783   0.0000   0.0000   0.0000   0.3556
   5.500   1.2340   0.00816   0.00370  -0.1376  0.5116  1.0000  -1.6288   0.0000   0.0000   0.0000   0.3526
   5.750   1.2580   0.00844   0.00391  -0.1371  0.4959  1.0000  -1.6831   0.0000   0.0000   0.0000   0.3497
   6.000   1.2817   0.00873   0.00414  -0.1365  0.4791  1.0000  -1.7459   0.0000   0.0000   0.0000   0.3468
   6.250   1.3045   0.00906   0.00439  -0.1357  0.4612  1.0000  -1.8165   0.0000   0.0000   0.0000   0.3441
   6.500   1.3263   0.00943   0.00468  -0.1348  0.4426  1.0000  -1.8906   0.0000   0.0000   0.0000   0.3413
   6.750   1.3472   0.00983   0.00500  -0.1338  0.4232  1.0000  -1.9670   0.0000   0.0000   0.0000   0.3386
   7.000   1.3674   0.01025   0.00534  -0.1326  0.4043  1.0000  -2.0476   0.0000   0.0000   0.0000   0.3359
   7.250   1.3866   0.01070   0.00570  -0.1313  0.3855  1.0000  -2.1287   0.0000   0.0000   0.0000   0.3332
   7.500   1.4048   0.01116   0.00608  -0.1298  0.3668  1.0000  -2.2107   0.0000   0.0000   0.0000   0.3306
   7.750   1.4212   0.01162   0.00648  -0.1280  0.3499  1.0000  -2.2905   0.0000   0.0000   0.0000   0.3278
   8.000   1.4371   0.01214   0.00693  -0.1261  0.3338  1.0000  -2.3744   0.0000   0.0000   0.0000   0.3252
   8.250   1.4527   0.01270   0.00742  -0.1244  0.3173  1.0000  -2.4831   0.0000   0.0000   0.0000   0.3226
   8.500   1.4676   0.01332   0.00797  -0.1225  0.3007  1.0000  -2.5914   0.0000   0.0000   0.0000   0.3201
   8.750   1.4814   0.01402   0.00860  -0.1206  0.2838  1.0000  -2.6983   0.0000   0.0000   0.0000   0.3176
   9.250   1.5075   0.01559   0.01003  -0.1169  0.2497  1.0000  -2.9144   0.0000   0.0000   0.0000   0.3129
   9.500   1.5200   0.01646   0.01083  -0.1151  0.2338  1.0000  -3.0255   0.0000   0.0000   0.0000   0.3106
   9.750   1.5314   0.01741   0.01171  -0.1132  0.2179  1.0000  -3.1348   0.0000   0.0000   0.0000   0.3084
  10.000   1.5432   0.01837   0.01261  -0.1114  0.2025  1.0000  -3.2463   0.0000   0.0000   0.0000   0.3063
  10.250   1.5542   0.01941   0.01358  -0.1096  0.1884  1.0000  -3.3567   0.0000   0.0000   0.0000   0.3041
  10.500   1.5643   0.02052   0.01463  -0.1078  0.1739  1.0000  -3.4655   0.0000   0.0000   0.0000   0.3021
  10.750   1.5739   0.02168   0.01574  -0.1060  0.1601  1.0000  -3.5740   0.0000   0.0000   0.0000   0.3000
  11.000   1.5825   0.02294   0.01693  -0.1041  0.1469  1.0000  -3.6804   0.0000   0.0000   0.0000   0.2980
  11.250   1.5913   0.02419   0.01814  -0.1023  0.1344  1.0000  -3.7885   0.0000   0.0000   0.0000   0.2960
  11.500   1.5995   0.02552   0.01942  -0.1005  0.1232  1.0000  -3.8954   0.0000   0.0000   0.0000   0.2941
  11.750   1.6073   0.02689   0.02075  -0.0988  0.1132  1.0000  -4.0019   0.0000   0.0000   0.0000   0.2922
  12.000   1.6153   0.02827   0.02210  -0.0971  0.1038  1.0000  -4.1100   0.0000   0.0000   0.0000   0.2904
  12.250   1.6227   0.02971   0.02352  -0.0954  0.0952  1.0000  -4.2167   0.0000   0.0000   0.0000   0.2886
  12.500   1.6297   0.03121   0.02500  -0.0937  0.0875  1.0000  -4.3229   0.0000   0.0000   0.0000   0.2868
  12.750   1.6364   0.03276   0.02654  -0.0921  0.0805  1.0000  -4.4327   0.0000   0.0000   0.0000   0.2851
  13.000   1.6430   0.03435   0.02814  -0.0906  0.0744  1.0000  -4.5432   0.0000   0.0000   0.0000   0.2834
  13.250   1.6496   0.03600   0.02978  -0.0892  0.0690  1.0000  -4.6537   0.0000   0.0000   0.0000   0.2818
  13.500   1.6559   0.03770   0.03149  -0.0878  0.0642  1.0000  -4.7642   0.0000   0.0000   0.0000   0.2803
  13.750   1.6617   0.03947   0.03328  -0.0864  0.0600  1.0000  -4.8737   0.0000   0.0000   0.0000   0.2787
  14.000   1.6672   0.04132   0.03514  -0.0851  0.0561  1.0000  -4.9824   0.0000   0.0000   0.0000   0.2772
  14.250   1.6736   0.04312   0.03697  -0.0840  0.0528  1.0000  -5.0951   0.0000   0.0000   0.0000   0.2758
  14.500   1.6789   0.04506   0.03894  -0.0828  0.0498  1.0000  -5.2040   0.0000   0.0000   0.0000   0.2744
  14.750   1.6832   0.04712   0.04103  -0.0817  0.0470  1.0000  -5.3097   0.0000   0.0000   0.0000   0.2731
  15.000   1.6887   0.04912   0.04307  -0.0807  0.0445  1.0000  -5.4201   0.0000   0.0000   0.0000   0.2718
  15.250   1.6922   0.05134   0.04532  -0.0797  0.0421  1.0000  -5.5230   0.0000   0.0000   0.0000   0.2705
  15.500   1.6959   0.05356   0.04759  -0.0788  0.0398  1.0000  -5.6484   0.0000   0.0000   0.0000   0.2693
  15.750   1.6991   0.05590   0.04998  -0.0779  0.0376  1.0000  -5.7758   0.0000   0.0000   0.0000   0.2681
  16.000   1.7002   0.05849   0.05260  -0.0771  0.0356  1.0000  -5.8938   0.0000   0.0000   0.0000   0.2670
  16.250   1.7029   0.06094   0.05511  -0.0764  0.0334  1.0000  -6.0202   0.0000   0.0000   0.0000   0.2659
  16.500   1.7032   0.06370   0.05792  -0.0757  0.0316  1.0000  -6.1350   0.0000   0.0000   0.0000   0.2649
  16.750   1.7032   0.06655   0.06082  -0.0751  0.0298  1.0000  -6.2484   0.0000   0.0000   0.0000   0.2640
  17.000   1.7028   0.06948   0.06381  -0.0746  0.0281  1.0000  -6.3597   0.0000   0.0000   0.0000   0.2631
  17.250   1.7004   0.07270   0.06708  -0.0742  0.0268  1.0000  -6.4604   0.0000   0.0000   0.0000   0.2623
  17.500   1.6990   0.07584   0.07030  -0.0738  0.0256  1.0000  -6.5659   0.0000   0.0000   0.0000   0.2615
  17.750   1.6959   0.07924   0.07376  -0.0736  0.0245  1.0000  -6.6625   0.0000   0.0000   0.0000   0.2608
  18.000   1.6917   0.08282   0.07741  -0.0735  0.0237  1.0000  -6.7526   0.0000   0.0000   0.0000   0.2602
  18.250   1.6893   0.08623   0.08091  -0.0735  0.0228  1.0000  -6.8521   0.0000   0.0000   0.0000   0.2596
  18.500   1.6842   0.09004   0.08478  -0.0737  0.0221  1.0000  -6.9364   0.0000   0.0000   0.0000   0.2592
  18.750   1.6782   0.09401   0.08883  -0.0740  0.0215  1.0000  -7.0166   0.0000   0.0000   0.0000   0.2589
  19.000   1.6753   0.09761   0.09251  -0.0744  0.0208  1.0000  -7.1150   0.0000   0.0000   0.0000   0.2586
  19.250   1.6705   0.10150   0.09649  -0.0749  0.0203  1.0000  -7.2019   0.0000   0.0000   0.0000   0.2584
  19.500   1.6637   0.10573   0.10079  -0.0757  0.0198  1.0000  -7.2745   0.0000   0.0000   0.0000   0.2583
  19.750   1.6559   0.11016   0.10530  -0.0766  0.0194  1.0000  -7.3381   0.0000   0.0000   0.0000   0.2584
  20.000   1.6519   0.11406   0.10930  -0.0776  0.0190  1.0000  -7.4242   0.0000   0.0000   0.0000   0.2585


