xflr5 v6.61

 Calculated polar for: QX0026  thickness=14.08

 1 1 Reynolds number fixed          Mach number fixed         

 xtrf =   1.000 (top)        1.000 (bottom)
 Mach =   0.000     Re =     0.800 e 6     Ncrit =   9.000

  alpha     CL        CD       CDp       Cm    Top Xtr Bot Xtr   Cpmin    Chinge    XCp    
 ------- -------- --------- --------- -------- ------- ------- -------- --------- ---------
 -10.000  -0.4919   0.01889   0.01368  -0.1306  0.8209  0.0219  -6.3826   0.0000   0.0000   0.0000  -0.0347
  -9.750  -0.4663   0.01822   0.01290  -0.1308  0.8175  0.0224  -6.1559   0.0000   0.0000   0.0000  -0.0500
  -9.500  -0.4406   0.01752   0.01200  -0.1309  0.8145  0.0229  -5.9440   0.0000   0.0000   0.0000  -0.0670
  -9.250  -0.4152   0.01673   0.01115  -0.1311  0.8116  0.0233  -5.7282   0.0000   0.0000   0.0000  -0.0858
  -9.000  -0.3886   0.01621   0.01062  -0.1313  0.8082  0.0237  -5.4957   0.0000   0.0000   0.0000  -0.1084
  -8.750  -0.3617   0.01575   0.01010  -0.1314  0.8051  0.0243  -5.2682   0.0000   0.0000   0.0000  -0.1347
  -8.500  -0.3346   0.01529   0.00950  -0.1316  0.8024  0.0250  -5.0508   0.0000   0.0000   0.0000  -0.1652
  -8.250  -0.3077   0.01469   0.00883  -0.1317  0.7993  0.0255  -4.8506   0.0000   0.0000   0.0000  -0.2010
  -8.000  -0.2806   0.01420   0.00835  -0.1319  0.7961  0.0261  -4.6404   0.0000   0.0000   0.0000  -0.2441
  -7.750  -0.2531   0.01381   0.00790  -0.1321  0.7933  0.0267  -4.4340   0.0000   0.0000   0.0000  -0.2974
  -7.500  -0.2252   0.01346   0.00744  -0.1322  0.7906  0.0275  -4.2351   0.0000   0.0000   0.0000  -0.3646
  -7.250  -0.1978   0.01297   0.00694  -0.1324  0.7874  0.0283  -4.0485   0.0000   0.0000   0.0000  -0.4494
  -7.000  -0.1698   0.01263   0.00659  -0.1326  0.7843  0.0292  -3.8567   0.0000   0.0000   0.0000  -0.5641
  -6.750  -0.1416   0.01232   0.00620  -0.1328  0.7817  0.0301  -3.6739   0.0000   0.0000   0.0000  -0.7255
  -6.500  -0.1138   0.01191   0.00577  -0.1330  0.7788  0.0311  -3.4945   0.0000   0.0000   0.0000  -0.9638
  -6.250  -0.0854   0.01163   0.00548  -0.1332  0.7756  0.0322  -3.3192   0.0000   0.0000   0.0000  -1.3657
  -6.000  -0.0570   0.01134   0.00513  -0.1334  0.7727  0.0335  -3.1529   0.0000   0.0000   0.0000  -2.1703
  -5.750  -0.0287   0.01106   0.00484  -0.1336  0.7701  0.0349  -2.9837   0.0000   0.0000   0.0000  -4.5641
  -5.500   0.0000   0.01083   0.00457  -0.1338  0.7669  0.0364  -2.8208   0.0000   0.0000   0.0000  21096.6008
  -5.250   0.0284   0.01053   0.00428  -0.1341  0.7638  0.0381  -2.6577   0.0000   0.0000   0.0000   5.1041
  -5.000   0.0572   0.01031   0.00402  -0.1343  0.7611  0.0401  -2.5055   0.0000   0.0000   0.0000   2.6639
  -4.750   0.0859   0.01010   0.00381  -0.1345  0.7582  0.0423  -2.3546   0.0000   0.0000   0.0000   1.8563
  -4.500   0.1146   0.00987   0.00358  -0.1348  0.7548  0.0447  -2.2081   0.0000   0.0000   0.0000   1.4540
  -4.250   0.1435   0.00968   0.00337  -0.1350  0.7518  0.0477  -2.0632   0.0000   0.0000   0.0000   1.2117
  -4.000   0.1725   0.00953   0.00319  -0.1352  0.7491  0.0512  -1.9200   0.0000   0.0000   0.0000   1.0504
  -3.750   0.2013   0.00933   0.00302  -0.1355  0.7456  0.0556  -1.7855   0.0000   0.0000   0.0000   0.9359
  -3.500   0.2302   0.00914   0.00284  -0.1357  0.7423  0.0616  -1.6553   0.0000   0.0000   0.0000   0.8500
  -3.250   0.2592   0.00897   0.00268  -0.1360  0.7394  0.0706  -1.5272   0.0000   0.0000   0.0000   0.7830
  -3.000   0.2881   0.00877   0.00256  -0.1362  0.7359  0.0849  -1.4019   0.0000   0.0000   0.0000   0.7298
  -2.750   0.3169   0.00857   0.00244  -0.1365  0.7323  0.1067  -1.2804   0.0000   0.0000   0.0000   0.6864
  -2.500   0.3459   0.00841   0.00234  -0.1368  0.7292  0.1336  -1.1647   0.0000   0.0000   0.0000   0.6500
  -2.250   0.3747   0.00824   0.00228  -0.1371  0.7254  0.1623  -1.0515   0.0000   0.0000   0.0000   0.6194
  -2.000   0.4036   0.00810   0.00221  -0.1374  0.7216  0.1911  -0.9430   0.0000   0.0000   0.0000   0.5931
  -1.750   0.4326   0.00798   0.00215  -0.1377  0.7184  0.2213  -0.8396   0.0000   0.0000   0.0000   0.5702
  -1.500   0.4614   0.00783   0.00212  -0.1379  0.7142  0.2566  -0.7887   0.0000   0.0000   0.0000   0.5503
  -1.250   0.4903   0.00769   0.00208  -0.1382  0.7104  0.2953  -0.8070   0.0000   0.0000   0.0000   0.5327
  -1.000   0.5191   0.00755   0.00206  -0.1385  0.7066  0.3445  -0.8256   0.0000   0.0000   0.0000   0.5171
  -0.750   0.5478   0.00737   0.00206  -0.1388  0.7023  0.4034  -0.8450   0.0000   0.0000   0.0000   0.5031
  -0.500   0.5764   0.00720   0.00205  -0.1391  0.6985  0.4731  -0.8652   0.0000   0.0000   0.0000   0.4906
  -0.250   0.6049   0.00703   0.00209  -0.1393  0.6939  0.5471  -0.8855   0.0000   0.0000   0.0000   0.4791
   0.000   0.6333   0.00690   0.00211  -0.1394  0.6897  0.6069  -0.9065   0.0000   0.0000   0.0000   0.4686
   0.250   0.6615   0.00681   0.00216  -0.1395  0.6852  0.6668  -0.9286   0.0000   0.0000   0.0000   0.4590
   0.500   0.6897   0.00675   0.00220  -0.1395  0.6804  0.7094  -0.9511   0.0000   0.0000   0.0000   0.4500
   0.750   0.7178   0.00672   0.00224  -0.1395  0.6758  0.7449  -0.9741   0.0000   0.0000   0.0000   0.4417
   1.000   0.7456   0.00668   0.00228  -0.1395  0.6707  0.7782  -0.9981   0.0000   0.0000   0.0000   0.4340
   1.250   0.7730   0.00666   0.00232  -0.1393  0.6657  0.8100  -1.0228   0.0000   0.0000   0.0000   0.4269
   1.500   0.7998   0.00663   0.00236  -0.1390  0.6602  0.8446  -1.0475   0.0000   0.0000   0.0000   0.4201
   1.750   0.8252   0.00658   0.00241  -0.1383  0.6548  0.8822  -1.0724   0.0000   0.0000   0.0000   0.4136
   2.000   0.8483   0.00652   0.00243  -0.1370  0.6492  0.9367  -1.0973   0.0000   0.0000   0.0000   0.4072
   2.250   0.8819   0.00650   0.00243  -0.1382  0.6429  1.0000  -1.1293   0.0000   0.0000   0.0000   0.4021
   2.500   0.9102   0.00659   0.00247  -0.1384  0.6370  1.0000  -1.1585   0.0000   0.0000   0.0000   0.3971
   2.750   0.9386   0.00666   0.00253  -0.1386  0.6301  1.0000  -1.1892   0.0000   0.0000   0.0000   0.3924
   3.000   0.9668   0.00675   0.00259  -0.1387  0.6231  1.0000  -1.2210   0.0000   0.0000   0.0000   0.3879
   3.250   0.9946   0.00686   0.00266  -0.1388  0.6159  1.0000  -1.2532   0.0000   0.0000   0.0000   0.3836
   3.500   1.0223   0.00697   0.00273  -0.1388  0.6081  1.0000  -1.2873   0.0000   0.0000   0.0000   0.3796
   3.750   1.0499   0.00708   0.00282  -0.1389  0.5995  1.0000  -1.3239   0.0000   0.0000   0.0000   0.3757
   4.000   1.0771   0.00720   0.00292  -0.1388  0.5902  1.0000  -1.3608   0.0000   0.0000   0.0000   0.3720
   4.250   1.1040   0.00734   0.00303  -0.1388  0.5803  1.0000  -1.4010   0.0000   0.0000   0.0000   0.3685
   4.500   1.1307   0.00749   0.00314  -0.1386  0.5700  1.0000  -1.4423   0.0000   0.0000   0.0000   0.3650
   4.750   1.1569   0.00767   0.00328  -0.1384  0.5586  1.0000  -1.4843   0.0000   0.0000   0.0000   0.3618
   5.000   1.1827   0.00786   0.00343  -0.1381  0.5465  1.0000  -1.5303   0.0000   0.0000   0.0000   0.3586
   5.250   1.2083   0.00806   0.00359  -0.1379  0.5335  1.0000  -1.5775   0.0000   0.0000   0.0000   0.3555
   5.500   1.2331   0.00829   0.00377  -0.1374  0.5191  1.0000  -1.6276   0.0000   0.0000   0.0000   0.3525
   5.750   1.2573   0.00855   0.00398  -0.1369  0.5036  1.0000  -1.6820   0.0000   0.0000   0.0000   0.3496
   6.000   1.2807   0.00885   0.00421  -0.1362  0.4875  1.0000  -1.7445   0.0000   0.0000   0.0000   0.3468
   6.250   1.3036   0.00917   0.00446  -0.1355  0.4699  1.0000  -1.8150   0.0000   0.0000   0.0000   0.3440
   6.500   1.3255   0.00953   0.00475  -0.1346  0.4515  1.0000  -1.8891   0.0000   0.0000   0.0000   0.3412
   6.750   1.3464   0.00993   0.00506  -0.1335  0.4323  1.0000  -1.9653   0.0000   0.0000   0.0000   0.3385
   7.000   1.3664   0.01036   0.00541  -0.1324  0.4132  1.0000  -2.0454   0.0000   0.0000   0.0000   0.3358
   7.250   1.3855   0.01081   0.00577  -0.1310  0.3946  1.0000  -2.1261   0.0000   0.0000   0.0000   0.3331
   7.500   1.4030   0.01128   0.00617  -0.1294  0.3759  1.0000  -2.2069   0.0000   0.0000   0.0000   0.3304
   7.750   1.4192   0.01175   0.00657  -0.1276  0.3584  1.0000  -2.2862   0.0000   0.0000   0.0000   0.3277
   8.000   1.4352   0.01227   0.00703  -0.1257  0.3421  1.0000  -2.3686   0.0000   0.0000   0.0000   0.3250
   8.250   1.4502   0.01285   0.00754  -0.1239  0.3259  1.0000  -2.4758   0.0000   0.0000   0.0000   0.3224
   8.500   1.4653   0.01346   0.00809  -0.1221  0.3093  1.0000  -2.5846   0.0000   0.0000   0.0000   0.3199
   8.750   1.4792   0.01416   0.00872  -0.1202  0.2927  1.0000  -2.6916   0.0000   0.0000   0.0000   0.3175
   9.000   1.4921   0.01495   0.00943  -0.1183  0.2756  1.0000  -2.7973   0.0000   0.0000   0.0000   0.3151
   9.250   1.5050   0.01576   0.01018  -0.1165  0.2585  1.0000  -2.9057   0.0000   0.0000   0.0000   0.3127
   9.500   1.5174   0.01663   0.01098  -0.1147  0.2422  1.0000  -3.0165   0.0000   0.0000   0.0000   0.3105
   9.750   1.5289   0.01759   0.01187  -0.1128  0.2262  1.0000  -3.1257   0.0000   0.0000   0.0000   0.3083
  10.000   1.5400   0.01860   0.01281  -0.1109  0.2104  1.0000  -3.2351   0.0000   0.0000   0.0000   0.3061
  10.250   1.5511   0.01962   0.01378  -0.1092  0.1958  1.0000  -3.3457   0.0000   0.0000   0.0000   0.3040
  10.750   1.5706   0.02192   0.01596  -0.1055  0.1672  1.0000  -3.5621   0.0000   0.0000   0.0000   0.2999
  11.000   1.5790   0.02319   0.01716  -0.1036  0.1539  1.0000  -3.6677   0.0000   0.0000   0.0000   0.2978
  11.250   1.5877   0.02447   0.01839  -0.1018  0.1409  1.0000  -3.7750   0.0000   0.0000   0.0000   0.2959
  11.500   1.5951   0.02585   0.01972  -0.1000  0.1292  1.0000  -3.8792   0.0000   0.0000   0.0000   0.2939
  11.750   1.6034   0.02720   0.02103  -0.0983  0.1186  1.0000  -3.9870   0.0000   0.0000   0.0000   0.2921
  12.000   1.6108   0.02862   0.02243  -0.0965  0.1087  1.0000  -4.0929   0.0000   0.0000   0.0000   0.2902
  12.250   1.6176   0.03012   0.02389  -0.0948  0.0997  1.0000  -4.1972   0.0000   0.0000   0.0000   0.2884
  12.500   1.6239   0.03167   0.02543  -0.0931  0.0917  1.0000  -4.3009   0.0000   0.0000   0.0000   0.2866
  12.750   1.6303   0.03325   0.02700  -0.0915  0.0845  1.0000  -4.4090   0.0000   0.0000   0.0000   0.2849
  13.000   1.6367   0.03489   0.02863  -0.0900  0.0779  1.0000  -4.5178   0.0000   0.0000   0.0000   0.2833
  13.500   1.6490   0.03830   0.03205  -0.0872  0.0671  1.0000  -4.7363   0.0000   0.0000   0.0000   0.2801
  13.750   1.6552   0.04006   0.03383  -0.0859  0.0625  1.0000  -4.8465   0.0000   0.0000   0.0000   0.2786
  14.000   1.6609   0.04190   0.03569  -0.0846  0.0585  1.0000  -4.9556   0.0000   0.0000   0.0000   0.2771
  14.250   1.6659   0.04385   0.03766  -0.0834  0.0550  1.0000  -5.0622   0.0000   0.0000   0.0000   0.2757
  14.500   1.6707   0.04583   0.03967  -0.0822  0.0518  1.0000  -5.1692   0.0000   0.0000   0.0000   0.2743
  14.750   1.6760   0.04782   0.04170  -0.0812  0.0489  1.0000  -5.2779   0.0000   0.0000   0.0000   0.2730
  15.000   1.6795   0.05002   0.04393  -0.0801  0.0463  1.0000  -5.3801   0.0000   0.0000   0.0000   0.2717
  15.250   1.6840   0.05217   0.04612  -0.0792  0.0438  1.0000  -5.4862   0.0000   0.0000   0.0000   0.2704
  15.500   1.6873   0.05446   0.04846  -0.0783  0.0415  1.0000  -5.6042   0.0000   0.0000   0.0000   0.2692
  15.750   1.6892   0.05695   0.05098  -0.0774  0.0392  1.0000  -5.7249   0.0000   0.0000   0.0000   0.2681
  16.000   1.6921   0.05935   0.05345  -0.0767  0.0371  1.0000  -5.8510   0.0000   0.0000   0.0000   0.2670
  16.250   1.6923   0.06211   0.05625  -0.0759  0.0351  1.0000  -5.9639   0.0000   0.0000   0.0000   0.2659
  16.500   1.6936   0.06479   0.05898  -0.0753  0.0330  1.0000  -6.0829   0.0000   0.0000   0.0000   0.2649
  16.750   1.6933   0.06768   0.06193  -0.0747  0.0312  1.0000  -6.1939   0.0000   0.0000   0.0000   0.2640
  17.000   1.6916   0.07079   0.06509  -0.0743  0.0296  1.0000  -6.2977   0.0000   0.0000   0.0000   0.2632
  17.250   1.6906   0.07386   0.06823  -0.0739  0.0281  1.0000  -6.4047   0.0000   0.0000   0.0000   0.2623
  17.500   1.6873   0.07727   0.07169  -0.0736  0.0268  1.0000  -6.4995   0.0000   0.0000   0.0000   0.2616
  17.750   1.6846   0.08064   0.07515  -0.0734  0.0257  1.0000  -6.5964   0.0000   0.0000   0.0000   0.2610
  18.000   1.6812   0.08416   0.07874  -0.0734  0.0247  1.0000  -6.6898   0.0000   0.0000   0.0000   0.2604
  18.250   1.6743   0.08819   0.08283  -0.0735  0.0240  1.0000  -6.7633   0.0000   0.0000   0.0000   0.2600
  18.500   1.6721   0.09163   0.08637  -0.0737  0.0232  1.0000  -6.8612   0.0000   0.0000   0.0000   0.2595
  18.750   1.6677   0.09542   0.09023  -0.0740  0.0224  1.0000  -6.9478   0.0000   0.0000   0.0000   0.2592
  19.000   1.6605   0.09964   0.09453  -0.0745  0.0219  1.0000  -7.0199   0.0000   0.0000   0.0000   0.2591
  19.250   1.6550   0.10368   0.09865  -0.0752  0.0213  1.0000  -7.0993   0.0000   0.0000   0.0000   0.2589
  19.500   1.6511   0.10751   0.10258  -0.0759  0.0208  1.0000  -7.1876   0.0000   0.0000   0.0000   0.2588
  19.750   1.6460   0.11157   0.10671  -0.0768  0.0203  1.0000  -7.2675   0.0000   0.0000   0.0000   0.2589
  20.000   1.6391   0.11593   0.11115  -0.0780  0.0199  1.0000  -7.3338   0.0000   0.0000   0.0000   0.2591


