xflr5 v6.61

 Calculated polar for: QX0026  thickness=14.08

 1 1 Reynolds number fixed          Mach number fixed         

 xtrf =   1.000 (top)        1.000 (bottom)
 Mach =   0.000     Re =     0.220 e 6     Ncrit =   9.000

  alpha     CL        CD       CDp       Cm    Top Xtr Bot Xtr   Cpmin    Chinge    XCp    
 ------- -------- --------- --------- -------- ------- ------- -------- --------- ---------
  -8.000  -0.2087   0.04003   0.03513  -0.1404  0.8788  0.0513  -3.3084   0.0000   0.0000   0.0000  -0.4527
  -7.750  -0.1918   0.03785   0.03291  -0.1407  0.8741  0.0518  -3.2111   0.0000   0.0000   0.0000  -0.5151
  -7.500  -0.1706   0.03676   0.03182  -0.1406  0.8700  0.0528  -3.0634   0.0000   0.0000   0.0000  -0.6084
  -7.250  -0.1623   0.03039   0.02446  -0.1416  0.8661  0.0503  -3.2346   0.0000   0.0000   0.0000  -0.6583
  -7.000  -0.1446   0.02775   0.02120  -0.1415  0.8608  0.0509  -3.2222   0.0000   0.0000   0.0000  -0.7680
  -6.750  -0.1205   0.02616   0.01940  -0.1415  0.8576  0.0520  -3.1092   0.0000   0.0000   0.0000  -0.9695
  -6.500  -0.0961   0.02506   0.01819  -0.1414  0.8541  0.0532  -2.9864   0.0000   0.0000   0.0000  -1.2760
  -6.250  -0.0721   0.02389   0.01673  -0.1411  0.8496  0.0548  -2.8924   0.0000   0.0000   0.0000  -1.7764
  -6.000  -0.0458   0.02270   0.01526  -0.1410  0.8467  0.0566  -2.7847   0.0000   0.0000   0.0000  -2.9322
  -5.750  -0.0201   0.02199   0.01453  -0.1409  0.8432  0.0585  -2.6529   0.0000   0.0000   0.0000  -7.0000
  -5.500   0.0055   0.02129   0.01355  -0.1405  0.8388  0.0609  -2.5544   0.0000   0.0000   0.0000  26.7644
  -5.250   0.0326   0.02053   0.01286  -0.1405  0.8360  0.0635  -2.4202   0.0000   0.0000   0.0000   4.6884
  -5.000   0.0593   0.01993   0.01211  -0.1403  0.8326  0.0666  -2.3065   0.0000   0.0000   0.0000   2.6847
  -4.750   0.0845   0.01947   0.01171  -0.1401  0.8282  0.0700  -2.1836   0.0000   0.0000   0.0000   1.9526
  -4.500   0.1122   0.01887   0.01108  -0.1400  0.8253  0.0741  -2.0673   0.0000   0.0000   0.0000   1.5304
  -4.250   0.1393   0.01843   0.01060  -0.1399  0.8222  0.0791  -1.9526   0.0000   0.0000   0.0000   1.2785
  -4.000   0.1646   0.01813   0.01033  -0.1396  0.8175  0.0850  -1.8384   0.0000   0.0000   0.0000   1.1178
  -3.750   0.1927   0.01766   0.00987  -0.1396  0.8146  0.0927  -1.7219   0.0000   0.0000   0.0000   0.9904
  -3.500   0.2198   0.01723   0.00953  -0.1396  0.8114  0.1026  -1.6123   0.0000   0.0000   0.0000   0.8978
  -3.250   0.2454   0.01699   0.00935  -0.1394  0.8066  0.1172  -1.5076   0.0000   0.0000   0.0000   0.8288
  -3.000   0.2740   0.01651   0.00900  -0.1396  0.8038  0.1418  -1.3960   0.0000   0.0000   0.0000   0.7683
  -2.750   0.3011   0.01619   0.00884  -0.1397  0.8002  0.1804  -1.2897   0.0000   0.0000   0.0000   0.7211
  -2.500   0.3274   0.01597   0.00880  -0.1397  0.7956  0.2260  -1.1855   0.0000   0.0000   0.0000   0.6826
  -2.250   0.3566   0.01563   0.00859  -0.1400  0.7929  0.2773  -1.0751   0.0000   0.0000   0.0000   0.6473
  -2.000   0.3828   0.01548   0.00864  -0.1399  0.7886  0.3330  -0.9747   0.0000   0.0000   0.0000   0.6193
  -1.750   0.4098   0.01523   0.00862  -0.1399  0.7844  0.4012  -0.8765   0.0000   0.0000   0.0000   0.5945
  -1.500   0.4386   0.01483   0.00849  -0.1400  0.7818  0.4887  -0.7793   0.0000   0.0000   0.0000   0.5714
  -1.250   0.4626   0.01475   0.00871  -0.1393  0.7766  0.5768  -0.7757   0.0000   0.0000   0.0000   0.5529
  -1.000   0.4886   0.01453   0.00873  -0.1386  0.7730  0.6606  -0.7939   0.0000   0.0000   0.0000   0.5347
  -0.750   0.5159   0.01429   0.00860  -0.1379  0.7705  0.7283  -0.8136   0.0000   0.0000   0.0000   0.5177
  -0.250   0.5605   0.01418   0.00872  -0.1347  0.7613  0.8319  -0.8474   0.0000   0.0000   0.0000   0.4899
   0.000   0.5793   0.01415   0.00879  -0.1323  0.7563  0.8825  -0.8633   0.0000   0.0000   0.0000   0.4775
   0.250   0.6080   0.01396   0.00862  -0.1318  0.7522  0.9482  -0.8857   0.0000   0.0000   0.0000   0.4655
   0.500   0.6504   0.01373   0.00827  -0.1346  0.7497  1.0000  -0.9163   0.0000   0.0000   0.0000   0.4552
   0.750   0.6760   0.01394   0.00843  -0.1346  0.7434  1.0000  -0.9370   0.0000   0.0000   0.0000   0.4469
   1.000   0.7080   0.01383   0.00820  -0.1353  0.7401  1.0000  -0.9636   0.0000   0.0000   0.0000   0.4385
   1.250   0.7343   0.01399   0.00832  -0.1352  0.7342  1.0000  -0.9868   0.0000   0.0000   0.0000   0.4312
   1.500   0.7652   0.01390   0.00814  -0.1357  0.7304  1.0000  -1.0141   0.0000   0.0000   0.0000   0.4240
   1.750   0.7924   0.01400   0.00820  -0.1356  0.7248  1.0000  -1.0395   0.0000   0.0000   0.0000   0.4175
   2.000   0.8225   0.01393   0.00807  -0.1360  0.7204  1.0000  -1.0685   0.0000   0.0000   0.0000   0.4113
   2.250   0.8499   0.01400   0.00810  -0.1359  0.7148  1.0000  -1.0960   0.0000   0.0000   0.0000   0.4056
   2.500   0.8798   0.01393   0.00798  -0.1362  0.7100  1.0000  -1.1263   0.0000   0.0000   0.0000   0.4001
   2.750   0.9068   0.01400   0.00803  -0.1360  0.7040  1.0000  -1.1555   0.0000   0.0000   0.0000   0.3950
   3.000   0.9374   0.01390   0.00786  -0.1364  0.6992  1.0000  -1.1888   0.0000   0.0000   0.0000   0.3902
   3.250   0.9634   0.01399   0.00796  -0.1361  0.6924  1.0000  -1.2192   0.0000   0.0000   0.0000   0.3856
   3.500   0.9949   0.01386   0.00775  -0.1365  0.6878  1.0000  -1.2558   0.0000   0.0000   0.0000   0.3812
   3.750   1.0204   0.01394   0.00785  -0.1361  0.6803  1.0000  -1.2900   0.0000   0.0000   0.0000   0.3771
   4.000   1.0473   0.01398   0.00789  -0.1359  0.6733  1.0000  -1.3261   0.0000   0.0000   0.0000   0.3731
   4.250   1.0777   0.01388   0.00773  -0.1362  0.6676  1.0000  -1.3680   0.0000   0.0000   0.0000   0.3694
   4.500   1.1032   0.01394   0.00782  -0.1358  0.6595  1.0000  -1.4075   0.0000   0.0000   0.0000   0.3657
   4.750   1.1292   0.01400   0.00788  -0.1354  0.6512  1.0000  -1.4490   0.0000   0.0000   0.0000   0.3622
   5.000   1.1557   0.01403   0.00792  -0.1351  0.6429  1.0000  -1.4932   0.0000   0.0000   0.0000   0.3589
   5.250   1.1822   0.01406   0.00794  -0.1348  0.6343  1.0000  -1.5411   0.0000   0.0000   0.0000   0.3556
   5.500   1.2082   0.01410   0.00798  -0.1343  0.6250  1.0000  -1.5900   0.0000   0.0000   0.0000   0.3525
   5.750   1.2334   0.01417   0.00805  -0.1338  0.6149  1.0000  -1.6441   0.0000   0.0000   0.0000   0.3494
   6.000   1.2579   0.01428   0.00816  -0.1332  0.6041  1.0000  -1.7038   0.0000   0.0000   0.0000   0.3464
   6.250   1.2818   0.01440   0.00829  -0.1325  0.5926  1.0000  -1.7698   0.0000   0.0000   0.0000   0.3435
   6.500   1.3054   0.01454   0.00843  -0.1317  0.5805  1.0000  -1.8446   0.0000   0.0000   0.0000   0.3407
   6.750   1.3290   0.01471   0.00857  -0.1309  0.5681  1.0000  -1.9224   0.0000   0.0000   0.0000   0.3379
   7.000   1.3501   0.01495   0.00882  -0.1297  0.5540  1.0000  -1.9997   0.0000   0.0000   0.0000   0.3351
   7.250   1.3711   0.01520   0.00906  -0.1285  0.5394  1.0000  -2.0808   0.0000   0.0000   0.0000   0.3324
   7.500   1.3906   0.01552   0.00935  -0.1271  0.5239  1.0000  -2.1619   0.0000   0.0000   0.0000   0.3297
   7.750   1.4092   0.01587   0.00966  -0.1256  0.5078  1.0000  -2.2439   0.0000   0.0000   0.0000   0.3270
   8.000   1.4253   0.01630   0.01007  -0.1237  0.4905  1.0000  -2.3232   0.0000   0.0000   0.0000   0.3243
   8.250   1.4400   0.01678   0.01051  -0.1215  0.4730  1.0000  -2.4144   0.0000   0.0000   0.0000   0.3215
   8.500   1.4517   0.01733   0.01098  -0.1189  0.4560  1.0000  -2.5136   0.0000   0.0000   0.0000   0.3186
   8.750   1.4621   0.01796   0.01159  -0.1162  0.4385  1.0000  -2.6104   0.0000   0.0000   0.0000   0.3158
   9.000   1.4719   0.01868   0.01227  -0.1136  0.4213  1.0000  -2.7067   0.0000   0.0000   0.0000   0.3130
   9.250   1.4810   0.01950   0.01303  -0.1110  0.4045  1.0000  -2.8022   0.0000   0.0000   0.0000   0.3104
   9.500   1.4894   0.02040   0.01390  -0.1084  0.3876  1.0000  -2.8964   0.0000   0.0000   0.0000   0.3078
   9.750   1.4974   0.02138   0.01485  -0.1060  0.3709  1.0000  -2.9904   0.0000   0.0000   0.0000   0.3053
  10.000   1.5046   0.02246   0.01588  -0.1035  0.3550  1.0000  -3.0833   0.0000   0.0000   0.0000   0.3029
  10.250   1.5117   0.02361   0.01702  -0.1012  0.3386  1.0000  -3.1792   0.0000   0.0000   0.0000   0.3006
  10.500   1.5180   0.02485   0.01823  -0.0989  0.3228  1.0000  -3.2736   0.0000   0.0000   0.0000   0.2984
  10.750   1.5235   0.02619   0.01954  -0.0967  0.3070  1.0000  -3.3664   0.0000   0.0000   0.0000   0.2962
  11.000   1.5288   0.02760   0.02094  -0.0945  0.2913  1.0000  -3.4591   0.0000   0.0000   0.0000   0.2941
  11.250   1.5327   0.02916   0.02245  -0.0923  0.2762  1.0000  -3.5479   0.0000   0.0000   0.0000   0.2920
  11.500   1.5370   0.03074   0.02402  -0.0903  0.2605  1.0000  -3.6385   0.0000   0.0000   0.0000   0.2900
  11.750   1.5397   0.03248   0.02573  -0.0882  0.2458  1.0000  -3.7244   0.0000   0.0000   0.0000   0.2881
  12.000   1.5423   0.03428   0.02752  -0.0863  0.2306  1.0000  -3.8101   0.0000   0.0000   0.0000   0.2862
  12.250   1.5437   0.03622   0.02943  -0.0843  0.2159  1.0000  -3.8924   0.0000   0.0000   0.0000   0.2844
  12.500   1.5444   0.03830   0.03148  -0.0825  0.2013  1.0000  -3.9720   0.0000   0.0000   0.0000   0.2827
  12.750   1.5449   0.04047   0.03363  -0.0807  0.1868  1.0000  -4.0511   0.0000   0.0000   0.0000   0.2810
  13.000   1.5441   0.04284   0.03595  -0.0790  0.1733  1.0000  -4.1258   0.0000   0.0000   0.0000   0.2794
  13.250   1.5440   0.04522   0.03832  -0.0775  0.1599  1.0000  -4.2034   0.0000   0.0000   0.0000   0.2779
  13.500   1.5428   0.04778   0.04085  -0.0761  0.1479  1.0000  -4.2791   0.0000   0.0000   0.0000   0.2765
  13.750   1.5413   0.05044   0.04348  -0.0748  0.1373  1.0000  -4.3529   0.0000   0.0000   0.0000   0.2752
  14.000   1.5408   0.05307   0.04612  -0.0736  0.1272  1.0000  -4.4298   0.0000   0.0000   0.0000   0.2739
  14.250   1.5397   0.05583   0.04889  -0.0725  0.1185  1.0000  -4.5038   0.0000   0.0000   0.0000   0.2726
  14.500   1.5383   0.05868   0.05175  -0.0715  0.1108  1.0000  -4.5759   0.0000   0.0000   0.0000   0.2715
  14.750   1.5364   0.06163   0.05471  -0.0706  0.1041  1.0000  -4.6459   0.0000   0.0000   0.0000   0.2704
  15.000   1.5338   0.06472   0.05780  -0.0698  0.0983  1.0000  -4.7125   0.0000   0.0000   0.0000   0.2694
  15.250   1.5331   0.06766   0.06079  -0.0691  0.0925  1.0000  -4.7851   0.0000   0.0000   0.0000   0.2684
  15.500   1.5322   0.07067   0.06386  -0.0686  0.0874  1.0000  -4.8558   0.0000   0.0000   0.0000   0.2675
  15.750   1.5299   0.07386   0.06706  -0.0681  0.0831  1.0000  -4.9226   0.0000   0.0000   0.0000   0.2667
  16.000   1.5282   0.07704   0.07028  -0.0677  0.0790  1.0000  -4.9935   0.0000   0.0000   0.0000   0.2659
  16.250   1.5272   0.08018   0.07349  -0.0674  0.0750  1.0000  -5.0652   0.0000   0.0000   0.0000   0.2652
  16.500   1.5247   0.08347   0.07677  -0.0671  0.0718  1.0000  -5.1462   0.0000   0.0000   0.0000   0.2645
  16.750   1.5241   0.08666   0.08008  -0.0671  0.0681  1.0000  -5.2321   0.0000   0.0000   0.0000   0.2639
  17.000   1.5225   0.08991   0.08335  -0.0670  0.0652  1.0000  -5.3146   0.0000   0.0000   0.0000   0.2633
  17.250   1.5216   0.09317   0.08667  -0.0671  0.0621  1.0000  -5.3987   0.0000   0.0000   0.0000   0.2628
  17.500   1.5207   0.09635   0.08991  -0.0672  0.0594  1.0000  -5.4834   0.0000   0.0000   0.0000   0.2623
  17.750   1.5204   0.09954   0.09314  -0.0675  0.0568  1.0000  -5.5731   0.0000   0.0000   0.0000   0.2619
  18.000   1.5203   0.10266   0.09632  -0.0677  0.0544  1.0000  -5.6615   0.0000   0.0000   0.0000   0.2614
  18.250   1.5208   0.10572   0.09942  -0.0681  0.0521  1.0000  -5.7543   0.0000   0.0000   0.0000   0.2610
  18.500   1.5220   0.10862   0.10237  -0.0684  0.0500  1.0000  -5.8481   0.0000   0.0000   0.0000   0.2606
  18.750   1.5232   0.11163   0.10546  -0.0689  0.0480  1.0000  -5.9406   0.0000   0.0000   0.0000   0.2603
  19.000   1.5285   0.11372   0.10751  -0.0689  0.0463  1.0000  -6.0607   0.0000   0.0000   0.0000   0.2595
  19.250   1.5283   0.11708   0.11103  -0.0698  0.0447  1.0000  -6.1384   0.0000   0.0000   0.0000   0.2594
  19.500   1.5337   0.11925   0.11319  -0.0701  0.0432  1.0000  -6.2598   0.0000   0.0000   0.0000   0.2588
  19.750   1.5378   0.12164   0.11564  -0.0705  0.0419  1.0000  -6.3666   0.0000   0.0000   0.0000   0.2583
  20.000   1.5383   0.12487   0.11903  -0.0716  0.0407  1.0000  -6.4485   0.0000   0.0000   0.0000   0.2583


