xflr5 v6.61

 Calculated polar for: QX0026  thickness=14.08

 1 1 Reynolds number fixed          Mach number fixed         

 xtrf =   1.000 (top)        1.000 (bottom)
 Mach =   0.000     Re =     0.660 e 6     Ncrit =   9.000

  alpha     CL        CD       CDp       Cm    Top Xtr Bot Xtr   Cpmin    Chinge    XCp    
 ------- -------- --------- --------- -------- ------- ------- -------- --------- ---------
 -10.000  -0.4830   0.02129   0.01606  -0.1313  0.8312  0.0234  -6.2336   0.0000   0.0000   0.0000  -0.0412
  -9.750  -0.4578   0.02066   0.01539  -0.1314  0.8278  0.0238  -5.9940   0.0000   0.0000   0.0000  -0.0568
  -9.500  -0.4327   0.01994   0.01457  -0.1316  0.8247  0.0243  -5.7779   0.0000   0.0000   0.0000  -0.0741
  -9.250  -0.4078   0.01903   0.01348  -0.1318  0.8216  0.0248  -5.5835   0.0000   0.0000   0.0000  -0.0935
  -9.000  -0.3824   0.01814   0.01236  -0.1319  0.8181  0.0254  -5.3953   0.0000   0.0000   0.0000  -0.1159
  -8.750  -0.3565   0.01746   0.01169  -0.1321  0.8151  0.0259  -5.1734   0.0000   0.0000   0.0000  -0.1419
  -8.500  -0.3298   0.01697   0.01113  -0.1322  0.8124  0.0265  -4.9535   0.0000   0.0000   0.0000  -0.1731
  -8.250  -0.3031   0.01636   0.01044  -0.1324  0.8089  0.0272  -4.7516   0.0000   0.0000   0.0000  -0.2099
  -8.000  -0.2761   0.01577   0.00966  -0.1325  0.8058  0.0278  -4.5681   0.0000   0.0000   0.0000  -0.2542
  -7.750  -0.2496   0.01514   0.00905  -0.1326  0.8031  0.0285  -4.3687   0.0000   0.0000   0.0000  -0.3073
  -7.500  -0.2221   0.01473   0.00860  -0.1328  0.8001  0.0293  -4.1682   0.0000   0.0000   0.0000  -0.3757
  -7.250  -0.1944   0.01431   0.00808  -0.1329  0.7968  0.0302  -3.9849   0.0000   0.0000   0.0000  -0.4641
  -7.000  -0.1672   0.01376   0.00751  -0.1331  0.7939  0.0310  -3.8073   0.0000   0.0000   0.0000  -0.5795
  -6.750  -0.1394   0.01340   0.00711  -0.1333  0.7913  0.0320  -3.6243   0.0000   0.0000   0.0000  -0.7444
  -6.500  -0.1113   0.01305   0.00669  -0.1334  0.7880  0.0331  -3.4505   0.0000   0.0000   0.0000  -0.9940
  -6.250  -0.0837   0.01260   0.00626  -0.1336  0.7848  0.0343  -3.2793   0.0000   0.0000   0.0000  -1.4040
  -6.000  -0.0554   0.01232   0.00591  -0.1338  0.7821  0.0357  -3.1138   0.0000   0.0000   0.0000  -2.2480
  -5.750  -0.0274   0.01194   0.00552  -0.1339  0.7793  0.0371  -2.9548   0.0000   0.0000   0.0000  -4.8028
  -5.500   0.0009   0.01166   0.00523  -0.1341  0.7759  0.0387  -2.7926   0.0000   0.0000   0.0000  148.7599
  -5.250   0.0293   0.01135   0.00489  -0.1343  0.7730  0.0406  -2.6350   0.0000   0.0000   0.0000   4.9704
  -5.000   0.0580   0.01114   0.00463  -0.1346  0.7704  0.0427  -2.4823   0.0000   0.0000   0.0000   2.6337
  -4.750   0.0863   0.01084   0.00436  -0.1348  0.7671  0.0449  -2.3371   0.0000   0.0000   0.0000   1.8518
  -4.500   0.1150   0.01061   0.00410  -0.1350  0.7638  0.0477  -2.1934   0.0000   0.0000   0.0000   1.4525
  -4.250   0.1438   0.01041   0.00388  -0.1352  0.7611  0.0509  -2.0498   0.0000   0.0000   0.0000   1.2115
  -4.000   0.1725   0.01019   0.00366  -0.1355  0.7580  0.0546  -1.9097   0.0000   0.0000   0.0000   1.0518
  -3.750   0.2012   0.00997   0.00347  -0.1357  0.7545  0.0595  -1.7772   0.0000   0.0000   0.0000   0.9374
  -3.500   0.2302   0.00978   0.00327  -0.1359  0.7514  0.0661  -1.6488   0.0000   0.0000   0.0000   0.8511
  -3.250   0.2590   0.00957   0.00310  -0.1362  0.7485  0.0760  -1.5226   0.0000   0.0000   0.0000   0.7844
  -3.000   0.2877   0.00936   0.00296  -0.1364  0.7448  0.0922  -1.3990   0.0000   0.0000   0.0000   0.7312
  -2.750   0.3165   0.00914   0.00282  -0.1367  0.7415  0.1171  -1.2787   0.0000   0.0000   0.0000   0.6876
  -2.250   0.3741   0.00879   0.00266  -0.1372  0.7345  0.1775  -1.0511   0.0000   0.0000   0.0000   0.6205
  -2.000   0.4030   0.00864   0.00258  -0.1375  0.7309  0.2081  -0.9431   0.0000   0.0000   0.0000   0.5941
  -1.750   0.4319   0.00850   0.00253  -0.1378  0.7276  0.2429  -0.8401   0.0000   0.0000   0.0000   0.5712
  -1.500   0.4605   0.00834   0.00249  -0.1381  0.7234  0.2805  -0.7874   0.0000   0.0000   0.0000   0.5512
  -1.250   0.4894   0.00818   0.00244  -0.1384  0.7199  0.3279  -0.8058   0.0000   0.0000   0.0000   0.5336
  -1.000   0.5180   0.00801   0.00243  -0.1386  0.7160  0.3837  -0.8242   0.0000   0.0000   0.0000   0.5179
  -0.750   0.5465   0.00781   0.00242  -0.1389  0.7118  0.4520  -0.8436   0.0000   0.0000   0.0000   0.5040
  -0.500   0.5751   0.00763   0.00242  -0.1391  0.7082  0.5294  -0.8638   0.0000   0.0000   0.0000   0.4913
  -0.250   0.6032   0.00747   0.00247  -0.1392  0.7035  0.5956  -0.8839   0.0000   0.0000   0.0000   0.4797
   0.000   0.6313   0.00736   0.00250  -0.1393  0.6995  0.6587  -0.9048   0.0000   0.0000   0.0000   0.4691
   0.250   0.6593   0.00729   0.00255  -0.1392  0.6950  0.7061  -0.9267   0.0000   0.0000   0.0000   0.4593
   0.500   0.6871   0.00723   0.00257  -0.1391  0.6903  0.7440  -0.9491   0.0000   0.0000   0.0000   0.4502
   0.750   0.7147   0.00720   0.00261  -0.1390  0.6858  0.7798  -0.9718   0.0000   0.0000   0.0000   0.4419
   1.000   0.7418   0.00715   0.00264  -0.1387  0.6808  0.8130  -0.9954   0.0000   0.0000   0.0000   0.4340
   1.250   0.7682   0.00711   0.00268  -0.1383  0.6761  0.8484  -1.0195   0.0000   0.0000   0.0000   0.4267
   1.750   0.8166   0.00697   0.00271  -0.1362  0.6655  0.9445  -1.0668   0.0000   0.0000   0.0000   0.4129
   2.000   0.8513   0.00696   0.00269  -0.1377  0.6598  1.0000  -1.0987   0.0000   0.0000   0.0000   0.4074
   2.250   0.8799   0.00703   0.00273  -0.1379  0.6539  1.0000  -1.1275   0.0000   0.0000   0.0000   0.4021
   2.500   0.9083   0.00711   0.00276  -0.1381  0.6481  1.0000  -1.1567   0.0000   0.0000   0.0000   0.3971
   2.750   0.9365   0.00718   0.00282  -0.1382  0.6413  1.0000  -1.1872   0.0000   0.0000   0.0000   0.3923
   3.000   0.9645   0.00727   0.00288  -0.1383  0.6349  1.0000  -1.2189   0.0000   0.0000   0.0000   0.3878
   3.250   0.9923   0.00737   0.00294  -0.1384  0.6280  1.0000  -1.2510   0.0000   0.0000   0.0000   0.3836
   3.500   1.0200   0.00746   0.00302  -0.1384  0.6202  1.0000  -1.2850   0.0000   0.0000   0.0000   0.3795
   3.750   1.0475   0.00757   0.00310  -0.1384  0.6122  1.0000  -1.3216   0.0000   0.0000   0.0000   0.3756
   4.000   1.0747   0.00769   0.00320  -0.1384  0.6038  1.0000  -1.3583   0.0000   0.0000   0.0000   0.3719
   4.250   1.1016   0.00782   0.00330  -0.1383  0.5945  1.0000  -1.3983   0.0000   0.0000   0.0000   0.3683
   4.500   1.1282   0.00796   0.00341  -0.1381  0.5847  1.0000  -1.4395   0.0000   0.0000   0.0000   0.3649
   4.750   1.1545   0.00812   0.00354  -0.1380  0.5743  1.0000  -1.4817   0.0000   0.0000   0.0000   0.3616
   5.000   1.1804   0.00829   0.00369  -0.1377  0.5628  1.0000  -1.5275   0.0000   0.0000   0.0000   0.3584
   5.250   1.2058   0.00849   0.00384  -0.1373  0.5506  1.0000  -1.5744   0.0000   0.0000   0.0000   0.3553
   5.500   1.2306   0.00871   0.00402  -0.1369  0.5380  1.0000  -1.6242   0.0000   0.0000   0.0000   0.3523
   5.750   1.2551   0.00894   0.00422  -0.1364  0.5235  1.0000  -1.6787   0.0000   0.0000   0.0000   0.3494
   6.000   1.2785   0.00922   0.00444  -0.1357  0.5082  1.0000  -1.7410   0.0000   0.0000   0.0000   0.3466
   6.250   1.3016   0.00952   0.00468  -0.1350  0.4920  1.0000  -1.8110   0.0000   0.0000   0.0000   0.3438
   6.500   1.3233   0.00986   0.00496  -0.1341  0.4746  1.0000  -1.8849   0.0000   0.0000   0.0000   0.3410
   6.750   1.3439   0.01026   0.00528  -0.1330  0.4563  1.0000  -1.9602   0.0000   0.0000   0.0000   0.3382
   7.000   1.3637   0.01068   0.00562  -0.1317  0.4371  1.0000  -2.0394   0.0000   0.0000   0.0000   0.3355
   7.250   1.3826   0.01113   0.00599  -0.1303  0.4182  1.0000  -2.1190   0.0000   0.0000   0.0000   0.3328
   7.750   1.4150   0.01210   0.00682  -0.1266  0.3818  1.0000  -2.2764   0.0000   0.0000   0.0000   0.3273
   8.000   1.4297   0.01267   0.00732  -0.1246  0.3647  1.0000  -2.3536   0.0000   0.0000   0.0000   0.3246
   8.250   1.4448   0.01324   0.00784  -0.1228  0.3480  1.0000  -2.4592   0.0000   0.0000   0.0000   0.3220
   8.500   1.4593   0.01388   0.00842  -0.1209  0.3319  1.0000  -2.5659   0.0000   0.0000   0.0000   0.3195
   9.000   1.4863   0.01536   0.00978  -0.1172  0.2991  1.0000  -2.7785   0.0000   0.0000   0.0000   0.3146
   9.250   1.4987   0.01621   0.01056  -0.1153  0.2824  1.0000  -2.8838   0.0000   0.0000   0.0000   0.3123
   9.500   1.5101   0.01714   0.01143  -0.1134  0.2657  1.0000  -2.9909   0.0000   0.0000   0.0000   0.3100
   9.750   1.5216   0.01811   0.01233  -0.1116  0.2489  1.0000  -3.0997   0.0000   0.0000   0.0000   0.3078
  10.000   1.5324   0.01914   0.01330  -0.1097  0.2326  1.0000  -3.2079   0.0000   0.0000   0.0000   0.3056
  10.250   1.5423   0.02025   0.01435  -0.1078  0.2169  1.0000  -3.3143   0.0000   0.0000   0.0000   0.3035
  10.500   1.5521   0.02140   0.01543  -0.1060  0.2016  1.0000  -3.4216   0.0000   0.0000   0.0000   0.3014
  10.750   1.5614   0.02261   0.01658  -0.1042  0.1871  1.0000  -3.5283   0.0000   0.0000   0.0000   0.2994
  11.000   1.5694   0.02392   0.01783  -0.1023  0.1729  1.0000  -3.6321   0.0000   0.0000   0.0000   0.2974
  11.250   1.5776   0.02524   0.01910  -0.1005  0.1592  1.0000  -3.7373   0.0000   0.0000   0.0000   0.2954
  11.750   1.5918   0.02810   0.02187  -0.0968  0.1343  1.0000  -3.9433   0.0000   0.0000   0.0000   0.2916
  12.000   1.5982   0.02961   0.02335  -0.0951  0.1233  1.0000  -4.0453   0.0000   0.0000   0.0000   0.2898
  12.250   1.6041   0.03120   0.02489  -0.0933  0.1133  1.0000  -4.1459   0.0000   0.0000   0.0000   0.2879
  12.500   1.6104   0.03277   0.02645  -0.0917  0.1040  1.0000  -4.2488   0.0000   0.0000   0.0000   0.2862
  12.750   1.6163   0.03443   0.02809  -0.0901  0.0956  1.0000  -4.3526   0.0000   0.0000   0.0000   0.2845
  13.000   1.6219   0.03615   0.02981  -0.0885  0.0880  1.0000  -4.4577   0.0000   0.0000   0.0000   0.2828
  13.250   1.6273   0.03793   0.03159  -0.0871  0.0813  1.0000  -4.5627   0.0000   0.0000   0.0000   0.2813
  13.500   1.6324   0.03977   0.03343  -0.0857  0.0754  1.0000  -4.6675   0.0000   0.0000   0.0000   0.2797
  13.750   1.6372   0.04169   0.03536  -0.0843  0.0702  1.0000  -4.7713   0.0000   0.0000   0.0000   0.2782
  14.000   1.6415   0.04370   0.03738  -0.0831  0.0656  1.0000  -4.8736   0.0000   0.0000   0.0000   0.2768
  14.250   1.6458   0.04574   0.03944  -0.0819  0.0614  1.0000  -4.9766   0.0000   0.0000   0.0000   0.2754
  14.500   1.6506   0.04777   0.04152  -0.0808  0.0577  1.0000  -5.0817   0.0000   0.0000   0.0000   0.2740
  14.750   1.6542   0.04998   0.04375  -0.0797  0.0545  1.0000  -5.1822   0.0000   0.0000   0.0000   0.2727
  15.000   1.6568   0.05230   0.04611  -0.0787  0.0515  1.0000  -5.2796   0.0000   0.0000   0.0000   0.2714
  15.250   1.6607   0.05454   0.04841  -0.0778  0.0487  1.0000  -5.3817   0.0000   0.0000   0.0000   0.2702
  15.500   1.6621   0.05710   0.05100  -0.0769  0.0463  1.0000  -5.4787   0.0000   0.0000   0.0000   0.2691
  15.750   1.6649   0.05954   0.05349  -0.0762  0.0438  1.0000  -5.5985   0.0000   0.0000   0.0000   0.2680
  16.000   1.6659   0.06222   0.05623  -0.0755  0.0416  1.0000  -5.7129   0.0000   0.0000   0.0000   0.2669
  16.250   1.6660   0.06504   0.05910  -0.0748  0.0394  1.0000  -5.8237   0.0000   0.0000   0.0000   0.2660
  16.500   1.6664   0.06787   0.06200  -0.0743  0.0373  1.0000  -5.9356   0.0000   0.0000   0.0000   0.2650
  16.750   1.6636   0.07112   0.06529  -0.0738  0.0355  1.0000  -6.0317   0.0000   0.0000   0.0000   0.2642
  17.000   1.6637   0.07409   0.06834  -0.0735  0.0335  1.0000  -6.1416   0.0000   0.0000   0.0000   0.2634
  17.250   1.6592   0.07767   0.07197  -0.0732  0.0321  1.0000  -6.2277   0.0000   0.0000   0.0000   0.2627
  17.500   1.6578   0.08090   0.07528  -0.0730  0.0304  1.0000  -6.3294   0.0000   0.0000   0.0000   0.2621
  17.750   1.6514   0.08484   0.07927  -0.0730  0.0293  1.0000  -6.4040   0.0000   0.0000   0.0000   0.2616
  18.000   1.6491   0.08829   0.08282  -0.0731  0.0281  1.0000  -6.4986   0.0000   0.0000   0.0000   0.2611
  18.250   1.6438   0.09217   0.08678  -0.0733  0.0271  1.0000  -6.5775   0.0000   0.0000   0.0000   0.2607
  18.500   1.6363   0.09644   0.09111  -0.0738  0.0263  1.0000  -6.6416   0.0000   0.0000   0.0000   0.2606
  18.750   1.6329   0.10017   0.09495  -0.0743  0.0255  1.0000  -6.7274   0.0000   0.0000   0.0000   0.2603
  19.000   1.6275   0.10421   0.09907  -0.0749  0.0248  1.0000  -6.8017   0.0000   0.0000   0.0000   0.2602
  19.250   1.6195   0.10869   0.10361  -0.0759  0.0242  1.0000  -6.8605   0.0000   0.0000   0.0000   0.2604
  19.500   1.6140   0.11286   0.10787  -0.0769  0.0236  1.0000  -6.9327   0.0000   0.0000   0.0000   0.2605
  19.750   1.6100   0.11682   0.11193  -0.0779  0.0230  1.0000  -7.0128   0.0000   0.0000   0.0000   0.2606
  20.000   1.6052   0.12092   0.11612  -0.0792  0.0224  1.0000  -7.0875   0.0000   0.0000   0.0000   0.2609


