xflr5 v6.61

 Calculated polar for: QX0026  thickness=14.08

 1 1 Reynolds number fixed          Mach number fixed         

 xtrf =   1.000 (top)        1.000 (bottom)
 Mach =   0.000     Re =     0.540 e 6     Ncrit =   9.000

  alpha     CL        CD       CDp       Cm    Top Xtr Bot Xtr   Cpmin    Chinge    XCp    
 ------- -------- --------- --------- -------- ------- ------- -------- --------- ---------
 -10.000  -0.4675   0.02545   0.02042  -0.1319  0.8432  0.0252  -5.9747   0.0000   0.0000   0.0000  -0.0519
  -9.750  -0.4461   0.02398   0.01881  -0.1322  0.8394  0.0256  -5.7909   0.0000   0.0000   0.0000  -0.0664
  -9.500  -0.4215   0.02328   0.01809  -0.1324  0.8362  0.0261  -5.5630   0.0000   0.0000   0.0000  -0.0844
  -9.250  -0.3975   0.02230   0.01697  -0.1326  0.8331  0.0265  -5.3719   0.0000   0.0000   0.0000  -0.1042
  -9.000  -0.3739   0.02105   0.01548  -0.1328  0.8294  0.0272  -5.2080   0.0000   0.0000   0.0000  -0.1264
  -8.750  -0.3499   0.01981   0.01391  -0.1330  0.8261  0.0279  -5.0507   0.0000   0.0000   0.0000  -0.1518
  -8.500  -0.3240   0.01912   0.01321  -0.1331  0.8235  0.0285  -4.8363   0.0000   0.0000   0.0000  -0.1833
  -8.250  -0.2978   0.01846   0.01252  -0.1333  0.8199  0.0291  -4.6325   0.0000   0.0000   0.0000  -0.2211
  -8.000  -0.2715   0.01768   0.01157  -0.1334  0.8166  0.0299  -4.4555   0.0000   0.0000   0.0000  -0.2659
  -7.750  -0.2451   0.01689   0.01059  -0.1335  0.8138  0.0307  -4.2862   0.0000   0.0000   0.0000  -0.3207
  -7.500  -0.2183   0.01636   0.01007  -0.1336  0.8107  0.0314  -4.0886   0.0000   0.0000   0.0000  -0.3904
  -7.250  -0.1911   0.01585   0.00950  -0.1337  0.8073  0.0324  -3.9030   0.0000   0.0000   0.0000  -0.4807
  -7.000  -0.1636   0.01529   0.00877  -0.1338  0.8044  0.0334  -3.7432   0.0000   0.0000   0.0000  -0.6022
  -6.750  -0.1365   0.01473   0.00824  -0.1339  0.8019  0.0343  -3.5663   0.0000   0.0000   0.0000  -0.7705
  -6.500  -0.1089   0.01432   0.00780  -0.1341  0.7983  0.0355  -3.3945   0.0000   0.0000   0.0000  -1.0279
  -6.250  -0.0814   0.01384   0.00725  -0.1342  0.7952  0.0368  -3.2312   0.0000   0.0000   0.0000  -1.4597
  -6.000  -0.0534   0.01346   0.00686  -0.1344  0.7925  0.0382  -3.0684   0.0000   0.0000   0.0000  -2.3511
  -5.750  -0.0254   0.01312   0.00643  -0.1345  0.7895  0.0398  -2.9174   0.0000   0.0000   0.0000  -5.2205
  -5.500   0.0023   0.01272   0.00608  -0.1346  0.7861  0.0415  -2.7586   0.0000   0.0000   0.0000  61.0408
  -5.250   0.0306   0.01240   0.00569  -0.1348  0.7831  0.0436  -2.6067   0.0000   0.0000   0.0000   4.7831
  -5.000   0.0589   0.01209   0.00537  -0.1350  0.7806  0.0457  -2.4557   0.0000   0.0000   0.0000   2.6042
  -4.750   0.0870   0.01177   0.00506  -0.1352  0.7770  0.0482  -2.3158   0.0000   0.0000   0.0000   1.8452
  -4.500   0.1156   0.01155   0.00481  -0.1354  0.7738  0.0512  -2.1743   0.0000   0.0000   0.0000   1.4500
  -4.250   0.1442   0.01126   0.00452  -0.1356  0.7712  0.0546  -2.0341   0.0000   0.0000   0.0000   1.2121
  -4.000   0.1726   0.01101   0.00428  -0.1358  0.7679  0.0587  -1.8973   0.0000   0.0000   0.0000   1.0537
  -3.750   0.2011   0.01078   0.00406  -0.1360  0.7644  0.0640  -1.7673   0.0000   0.0000   0.0000   0.9396
  -3.500   0.2300   0.01056   0.00383  -0.1362  0.7615  0.0713  -1.6411   0.0000   0.0000   0.0000   0.8531
  -3.250   0.2587   0.01032   0.00364  -0.1365  0.7584  0.0823  -1.5172   0.0000   0.0000   0.0000   0.7863
  -3.000   0.2872   0.01009   0.00349  -0.1367  0.7546  0.1006  -1.3957   0.0000   0.0000   0.0000   0.7332
  -2.750   0.3160   0.00984   0.00333  -0.1370  0.7515  0.1286  -1.2769   0.0000   0.0000   0.0000   0.6893
  -2.500   0.3448   0.00965   0.00324  -0.1373  0.7484  0.1615  -1.1626   0.0000   0.0000   0.0000   0.6528
  -2.250   0.3733   0.00947   0.00317  -0.1375  0.7444  0.1942  -1.0509   0.0000   0.0000   0.0000   0.6221
  -2.000   0.4022   0.00930   0.00308  -0.1378  0.7410  0.2283  -0.9435   0.0000   0.0000   0.0000   0.5955
  -1.750   0.4310   0.00916   0.00303  -0.1381  0.7376  0.2664  -0.8409   0.0000   0.0000   0.0000   0.5725
  -1.500   0.4594   0.00898   0.00299  -0.1383  0.7335  0.3108  -0.7857   0.0000   0.0000   0.0000   0.5526
  -1.250   0.4883   0.00879   0.00293  -0.1386  0.7300  0.3656  -0.8041   0.0000   0.0000   0.0000   0.5348
  -1.000   0.5166   0.00859   0.00293  -0.1388  0.7261  0.4321  -0.8224   0.0000   0.0000   0.0000   0.5191
  -0.750   0.5448   0.00837   0.00294  -0.1390  0.7219  0.5091  -0.8417   0.0000   0.0000   0.0000   0.5050
  -0.500   0.5734   0.00821   0.00293  -0.1392  0.7186  0.5828  -0.8619   0.0000   0.0000   0.0000   0.4921
  -0.250   0.6007   0.00806   0.00300  -0.1391  0.7138  0.6488  -0.8817   0.0000   0.0000   0.0000   0.4805
   0.000   0.6287   0.00798   0.00302  -0.1390  0.7098  0.7024  -0.9026   0.0000   0.0000   0.0000   0.4696
   0.250   0.6562   0.00791   0.00306  -0.1388  0.7054  0.7432  -0.9242   0.0000   0.0000   0.0000   0.4597
   0.750   0.7102   0.00780   0.00310  -0.1382  0.6966  0.8164  -0.9685   0.0000   0.0000   0.0000   0.4420
   1.000   0.7359   0.00774   0.00313  -0.1375  0.6915  0.8534  -0.9912   0.0000   0.0000   0.0000   0.4340
   1.250   0.7600   0.00767   0.00313  -0.1364  0.6872  0.8956  -1.0140   0.0000   0.0000   0.0000   0.4263
   1.500   0.7857   0.00757   0.00311  -0.1357  0.6816  0.9540  -1.0381   0.0000   0.0000   0.0000   0.4191
   1.750   0.8208   0.00758   0.00307  -0.1373  0.6768  1.0000  -1.0686   0.0000   0.0000   0.0000   0.4133
   2.000   0.8493   0.00763   0.00310  -0.1375  0.6709  1.0000  -1.0966   0.0000   0.0000   0.0000   0.4076
   2.250   0.8778   0.00770   0.00313  -0.1377  0.6655  1.0000  -1.1254   0.0000   0.0000   0.0000   0.4022
   2.500   0.9061   0.00777   0.00316  -0.1378  0.6595  1.0000  -1.1545   0.0000   0.0000   0.0000   0.3972
   2.750   0.9342   0.00784   0.00322  -0.1379  0.6531  1.0000  -1.1849   0.0000   0.0000   0.0000   0.3924
   3.000   0.9624   0.00793   0.00325  -0.1380  0.6472  1.0000  -1.2166   0.0000   0.0000   0.0000   0.3879
   3.250   0.9900   0.00801   0.00333  -0.1381  0.6400  1.0000  -1.2485   0.0000   0.0000   0.0000   0.3836
   3.500   1.0176   0.00810   0.00340  -0.1381  0.6328  1.0000  -1.2824   0.0000   0.0000   0.0000   0.3795
   3.750   1.0450   0.00821   0.00348  -0.1381  0.6255  1.0000  -1.3188   0.0000   0.0000   0.0000   0.3756
   4.250   1.0990   0.00843   0.00366  -0.1379  0.6087  1.0000  -1.3953   0.0000   0.0000   0.0000   0.3683
   4.500   1.1255   0.00856   0.00377  -0.1377  0.5992  1.0000  -1.4364   0.0000   0.0000   0.0000   0.3648
   4.750   1.1517   0.00871   0.00390  -0.1375  0.5894  1.0000  -1.4784   0.0000   0.0000   0.0000   0.3615
   5.000   1.1776   0.00887   0.00403  -0.1372  0.5790  1.0000  -1.5240   0.0000   0.0000   0.0000   0.3583
   5.250   1.2030   0.00905   0.00419  -0.1368  0.5678  1.0000  -1.5708   0.0000   0.0000   0.0000   0.3552
   5.500   1.2280   0.00924   0.00436  -0.1364  0.5556  1.0000  -1.6206   0.0000   0.0000   0.0000   0.3522
   5.750   1.2526   0.00946   0.00455  -0.1359  0.5426  1.0000  -1.6750   0.0000   0.0000   0.0000   0.3493
   6.000   1.2761   0.00971   0.00476  -0.1352  0.5284  1.0000  -1.7370   0.0000   0.0000   0.0000   0.3464
   6.250   1.2992   0.00999   0.00499  -0.1345  0.5132  1.0000  -1.8063   0.0000   0.0000   0.0000   0.3436
   6.500   1.3210   0.01032   0.00526  -0.1336  0.4973  1.0000  -1.8802   0.0000   0.0000   0.0000   0.3408
   6.750   1.3422   0.01066   0.00555  -0.1325  0.4797  1.0000  -1.9561   0.0000   0.0000   0.0000   0.3381
   7.000   1.3620   0.01107   0.00589  -0.1313  0.4615  1.0000  -2.0346   0.0000   0.0000   0.0000   0.3353
   7.250   1.3804   0.01151   0.00626  -0.1298  0.4427  1.0000  -2.1134   0.0000   0.0000   0.0000   0.3326
   7.500   1.3975   0.01200   0.00667  -0.1281  0.4243  1.0000  -2.1923   0.0000   0.0000   0.0000   0.3298
   7.750   1.4116   0.01252   0.00712  -0.1259  0.4065  1.0000  -2.2677   0.0000   0.0000   0.0000   0.3270
   8.000   1.4261   0.01307   0.00761  -0.1238  0.3884  1.0000  -2.3443   0.0000   0.0000   0.0000   0.3242
   8.250   1.4401   0.01369   0.00817  -0.1218  0.3713  1.0000  -2.4435   0.0000   0.0000   0.0000   0.3216
   8.500   1.4533   0.01438   0.00880  -0.1197  0.3550  1.0000  -2.5467   0.0000   0.0000   0.0000   0.3190
   8.750   1.4669   0.01508   0.00946  -0.1179  0.3385  1.0000  -2.6523   0.0000   0.0000   0.0000   0.3165
   9.000   1.4797   0.01587   0.01019  -0.1159  0.3225  1.0000  -2.7569   0.0000   0.0000   0.0000   0.3141
   9.250   1.4916   0.01674   0.01100  -0.1140  0.3064  1.0000  -2.8604   0.0000   0.0000   0.0000   0.3118
   9.500   1.5035   0.01765   0.01186  -0.1122  0.2898  1.0000  -2.9667   0.0000   0.0000   0.0000   0.3095
   9.750   1.5142   0.01865   0.01281  -0.1102  0.2734  1.0000  -3.0728   0.0000   0.0000   0.0000   0.3073
  10.000   1.5241   0.01975   0.01384  -0.1083  0.2570  1.0000  -3.1775   0.0000   0.0000   0.0000   0.3051
  10.250   1.5341   0.02087   0.01490  -0.1065  0.2404  1.0000  -3.2838   0.0000   0.0000   0.0000   0.3030
  10.500   1.5430   0.02208   0.01604  -0.1046  0.2244  1.0000  -3.3880   0.0000   0.0000   0.0000   0.3009
  11.000   1.5594   0.02467   0.01853  -0.1008  0.1939  1.0000  -3.5946   0.0000   0.0000   0.0000   0.2968
  11.250   1.5665   0.02609   0.01989  -0.0989  0.1796  1.0000  -3.6957   0.0000   0.0000   0.0000   0.2949
  11.500   1.5732   0.02755   0.02130  -0.0971  0.1655  1.0000  -3.7964   0.0000   0.0000   0.0000   0.2929
  11.750   1.5794   0.02907   0.02277  -0.0953  0.1526  1.0000  -3.8962   0.0000   0.0000   0.0000   0.2911
  12.000   1.5854   0.03064   0.02430  -0.0935  0.1403  1.0000  -3.9959   0.0000   0.0000   0.0000   0.2892
  12.250   1.5903   0.03231   0.02593  -0.0917  0.1293  1.0000  -4.0927   0.0000   0.0000   0.0000   0.2874
  12.500   1.5961   0.03396   0.02756  -0.0901  0.1188  1.0000  -4.1928   0.0000   0.0000   0.0000   0.2857
  12.750   1.6011   0.03571   0.02930  -0.0885  0.1089  1.0000  -4.2910   0.0000   0.0000   0.0000   0.2840
  13.000   1.6055   0.03756   0.03113  -0.0869  0.1001  1.0000  -4.3911   0.0000   0.0000   0.0000   0.2824
  13.250   1.6097   0.03948   0.03303  -0.0854  0.0923  1.0000  -4.4909   0.0000   0.0000   0.0000   0.2808
  13.500   1.6139   0.04144   0.03500  -0.0840  0.0854  1.0000  -4.5906   0.0000   0.0000   0.0000   0.2793
  13.750   1.6180   0.04346   0.03703  -0.0827  0.0792  1.0000  -4.6906   0.0000   0.0000   0.0000   0.2778
  14.000   1.6219   0.04553   0.03912  -0.0815  0.0738  1.0000  -4.7902   0.0000   0.0000   0.0000   0.2764
  14.250   1.6255   0.04769   0.04130  -0.0803  0.0691  1.0000  -4.8887   0.0000   0.0000   0.0000   0.2750
  14.500   1.6283   0.04997   0.04360  -0.0792  0.0650  1.0000  -4.9845   0.0000   0.0000   0.0000   0.2737
  14.750   1.6304   0.05236   0.04602  -0.0782  0.0612  1.0000  -5.0777   0.0000   0.0000   0.0000   0.2724
  15.000   1.6337   0.05467   0.04838  -0.0773  0.0577  1.0000  -5.1756   0.0000   0.0000   0.0000   0.2712
  15.250   1.6351   0.05722   0.05098  -0.0764  0.0547  1.0000  -5.2662   0.0000   0.0000   0.0000   0.2701
  15.500   1.6363   0.05985   0.05365  -0.0756  0.0518  1.0000  -5.3572   0.0000   0.0000   0.0000   0.2690
  15.750   1.6378   0.06249   0.05635  -0.0749  0.0492  1.0000  -5.4607   0.0000   0.0000   0.0000   0.2679
  16.000   1.6364   0.06550   0.05940  -0.0742  0.0469  1.0000  -5.5582   0.0000   0.0000   0.0000   0.2670
  16.250   1.6378   0.06824   0.06222  -0.0737  0.0444  1.0000  -5.6717   0.0000   0.0000   0.0000   0.2660
  16.500   1.6349   0.07153   0.06555  -0.0732  0.0424  1.0000  -5.7647   0.0000   0.0000   0.0000   0.2652
  16.750   1.6349   0.07452   0.06863  -0.0729  0.0402  1.0000  -5.8717   0.0000   0.0000   0.0000   0.2644
  17.000   1.6308   0.07807   0.07223  -0.0727  0.0384  1.0000  -5.9572   0.0000   0.0000   0.0000   0.2638
  17.250   1.6289   0.08139   0.07563  -0.0725  0.0365  1.0000  -6.0534   0.0000   0.0000   0.0000   0.2631
  17.500   1.6233   0.08525   0.07955  -0.0725  0.0350  1.0000  -6.1298   0.0000   0.0000   0.0000   0.2627
  17.750   1.6205   0.08878   0.08317  -0.0726  0.0333  1.0000  -6.2198   0.0000   0.0000   0.0000   0.2622
  18.000   1.6122   0.09311   0.08755  -0.0730  0.0323  1.0000  -6.2798   0.0000   0.0000   0.0000   0.2620
  18.250   1.6096   0.09672   0.09127  -0.0733  0.0309  1.0000  -6.3671   0.0000   0.0000   0.0000   0.2617
  18.500   1.6039   0.10080   0.09542  -0.0739  0.0299  1.0000  -6.4381   0.0000   0.0000   0.0000   0.2616
  18.750   1.5956   0.10530   0.09998  -0.0747  0.0291  1.0000  -6.4915   0.0000   0.0000   0.0000   0.2617
  19.000   1.5923   0.10911   0.10390  -0.0755  0.0281  1.0000  -6.5710   0.0000   0.0000   0.0000   0.2616
  19.250   1.5876   0.11318   0.10805  -0.0765  0.0274  1.0000  -6.6425   0.0000   0.0000   0.0000   0.2617
  19.500   1.5806   0.11760   0.11252  -0.0777  0.0268  1.0000  -6.6988   0.0000   0.0000   0.0000   0.2621
  19.750   1.5757   0.12175   0.11676  -0.0790  0.0261  1.0000  -6.7664   0.0000   0.0000   0.0000   0.2624
  20.000   1.5727   0.12564   0.12075  -0.0803  0.0254  1.0000  -6.8453   0.0000   0.0000   0.0000   0.2626


