xflr5 v6.61

 Calculated polar for: QX0026  thickness=14.08

 1 1 Reynolds number fixed          Mach number fixed         

 xtrf =   1.000 (top)        1.000 (bottom)
 Mach =   0.000     Re =     0.320 e 6     Ncrit =   9.000

  alpha     CL        CD       CDp       Cm    Top Xtr Bot Xtr   Cpmin    Chinge    XCp    
 ------- -------- --------- --------- -------- ------- ------- -------- --------- ---------
  -9.000  -0.3075   0.03914   0.03500  -0.1331  0.8659  0.0365  -4.1182   0.0000   0.0000   0.0000  -0.2069
  -8.750  -0.2956   0.03604   0.03168  -0.1346  0.8610  0.0368  -4.0691   0.0000   0.0000   0.0000  -0.2295
  -8.500  -0.2817   0.03304   0.02837  -0.1356  0.8573  0.0371  -4.0216   0.0000   0.0000   0.0000  -0.2559
  -8.250  -0.2687   0.02916   0.02396  -0.1366  0.8531  0.0372  -4.0358   0.0000   0.0000   0.0000  -0.2836
  -8.000  -0.2490   0.02681   0.02127  -0.1370  0.8491  0.0377  -3.9555   0.0000   0.0000   0.0000  -0.3264
  -7.750  -0.2272   0.02485   0.01892  -0.1371  0.8461  0.0385  -3.8561   0.0000   0.0000   0.0000  -0.3814
  -7.500  -0.2048   0.02293   0.01646  -0.1372  0.8422  0.0395  -3.7856   0.0000   0.0000   0.0000  -0.4499
  -7.250  -0.1797   0.02175   0.01521  -0.1373  0.8385  0.0403  -3.6360   0.0000   0.0000   0.0000  -0.5465
  -7.000  -0.1535   0.02092   0.01430  -0.1373  0.8357  0.0413  -3.4749   0.0000   0.0000   0.0000  -0.6810
  -6.750  -0.1275   0.01998   0.01309  -0.1373  0.8324  0.0428  -3.3470   0.0000   0.0000   0.0000  -0.8688
  -6.500  -0.1015   0.01911   0.01213  -0.1373  0.8286  0.0440  -3.2076   0.0000   0.0000   0.0000  -1.1543
  -6.250  -0.0744   0.01844   0.01141  -0.1373  0.8256  0.0454  -3.0567   0.0000   0.0000   0.0000  -1.6614
  -6.000  -0.0470   0.01776   0.01051  -0.1372  0.8230  0.0472  -2.9246   0.0000   0.0000   0.0000  -2.7701
  -5.750  -0.0207   0.01720   0.01002  -0.1373  0.8188  0.0490  -2.7792   0.0000   0.0000   0.0000  -6.5895
  -5.500   0.0069   0.01670   0.00937  -0.1372  0.8157  0.0512  -2.6491   0.0000   0.0000   0.0000  20.6700
  -5.250   0.0344   0.01611   0.00882  -0.1373  0.8132  0.0534  -2.5052   0.0000   0.0000   0.0000   4.3634
  -5.000   0.0613   0.01570   0.00836  -0.1372  0.8092  0.0562  -2.3735   0.0000   0.0000   0.0000   2.5539
  -4.750   0.0886   0.01527   0.00797  -0.1373  0.8058  0.0593  -2.2412   0.0000   0.0000   0.0000   1.8411
  -4.500   0.1166   0.01483   0.00751  -0.1374  0.8031  0.0628  -2.1124   0.0000   0.0000   0.0000   1.4579
  -4.250   0.1439   0.01449   0.00717  -0.1374  0.7996  0.0671  -1.9871   0.0000   0.0000   0.0000   1.2272
  -4.000   0.1716   0.01420   0.00687  -0.1375  0.7959  0.0723  -1.8605   0.0000   0.0000   0.0000   1.0689
  -3.750   0.1999   0.01383   0.00651  -0.1376  0.7931  0.0790  -1.7375   0.0000   0.0000   0.0000   0.9526
  -3.500   0.2278   0.01350   0.00623  -0.1378  0.7899  0.0879  -1.6196   0.0000   0.0000   0.0000   0.8661
  -3.250   0.2554   0.01322   0.00602  -0.1378  0.7858  0.1017  -1.5052   0.0000   0.0000   0.0000   0.7992
  -3.000   0.2840   0.01287   0.00575  -0.1381  0.7828  0.1253  -1.3885   0.0000   0.0000   0.0000   0.7440
  -2.750   0.3124   0.01256   0.00558  -0.1383  0.7799  0.1613  -1.2751   0.0000   0.0000   0.0000   0.6991
  -2.500   0.3398   0.01236   0.00552  -0.1385  0.7755  0.2012  -1.1660   0.0000   0.0000   0.0000   0.6626
  -2.250   0.3686   0.01213   0.00539  -0.1387  0.7723  0.2432  -1.0549   0.0000   0.0000   0.0000   0.6305
  -2.000   0.3972   0.01192   0.00530  -0.1390  0.7692  0.2885  -0.9497   0.0000   0.0000   0.0000   0.6032
  -1.750   0.4245   0.01173   0.00530  -0.1391  0.7647  0.3425  -0.8505   0.0000   0.0000   0.0000   0.5801
  -1.500   0.4532   0.01145   0.00521  -0.1393  0.7615  0.4095  -0.7768   0.0000   0.0000   0.0000   0.5592
  -1.250   0.4808   0.01122   0.00523  -0.1394  0.7577  0.4896  -0.7945   0.0000   0.0000   0.0000   0.5411
  -1.000   0.5077   0.01101   0.00527  -0.1392  0.7534  0.5726  -0.8124   0.0000   0.0000   0.0000   0.5249
  -0.750   0.5355   0.01080   0.00525  -0.1390  0.7503  0.6493  -0.8318   0.0000   0.0000   0.0000   0.5097
  -0.500   0.5612   0.01074   0.00535  -0.1384  0.7456  0.7100  -0.8504   0.0000   0.0000   0.0000   0.4963
  -0.250   0.5877   0.01063   0.00534  -0.1378  0.7417  0.7588  -0.8699   0.0000   0.0000   0.0000   0.4838
   0.000   0.6139   0.01053   0.00531  -0.1371  0.7383  0.8025  -0.8901   0.0000   0.0000   0.0000   0.4722
   0.250   0.6373   0.01047   0.00536  -0.1359  0.7331  0.8448  -0.9093   0.0000   0.0000   0.0000   0.4617
   0.500   0.6609   0.01033   0.00526  -0.1345  0.7296  0.8890  -0.9296   0.0000   0.0000   0.0000   0.4515
   0.750   0.6866   0.01024   0.00524  -0.1337  0.7245  0.9461  -0.9511   0.0000   0.0000   0.0000   0.4423
   1.000   0.7255   0.01015   0.00509  -0.1359  0.7203  1.0000  -0.9813   0.0000   0.0000   0.0000   0.4346
   1.250   0.7543   0.01021   0.00509  -0.1363  0.7155  1.0000  -1.0065   0.0000   0.0000   0.0000   0.4275
   1.500   0.7834   0.01023   0.00505  -0.1366  0.7106  1.0000  -1.0324   0.0000   0.0000   0.0000   0.4209
   1.750   0.8122   0.01028   0.00504  -0.1368  0.7058  1.0000  -1.0591   0.0000   0.0000   0.0000   0.4147
   2.000   0.8408   0.01031   0.00503  -0.1370  0.7005  1.0000  -1.0871   0.0000   0.0000   0.0000   0.4088
   2.250   0.8692   0.01036   0.00504  -0.1371  0.6952  1.0000  -1.1156   0.0000   0.0000   0.0000   0.4033
   2.500   0.8978   0.01039   0.00502  -0.1373  0.6898  1.0000  -1.1449   0.0000   0.0000   0.0000   0.3981
   2.750   0.9254   0.01046   0.00507  -0.1373  0.6838  1.0000  -1.1748   0.0000   0.0000   0.0000   0.3932
   3.000   0.9545   0.01048   0.00503  -0.1375  0.6785  1.0000  -1.2072   0.0000   0.0000   0.0000   0.3886
   3.250   0.9812   0.01056   0.00512  -0.1373  0.6715  1.0000  -1.2383   0.0000   0.0000   0.0000   0.3842
   3.500   1.0091   0.01061   0.00514  -0.1374  0.6653  1.0000  -1.2723   0.0000   0.0000   0.0000   0.3800
   3.750   1.0370   0.01066   0.00516  -0.1374  0.6587  1.0000  -1.3089   0.0000   0.0000   0.0000   0.3760
   4.000   1.0634   0.01075   0.00526  -0.1371  0.6511  1.0000  -1.3449   0.0000   0.0000   0.0000   0.3722
   4.250   1.0903   0.01083   0.00533  -0.1370  0.6435  1.0000  -1.3842   0.0000   0.0000   0.0000   0.3685
   4.500   1.1173   0.01091   0.00538  -0.1368  0.6358  1.0000  -1.4254   0.0000   0.0000   0.0000   0.3650
   4.750   1.1441   0.01100   0.00544  -0.1366  0.6276  1.0000  -1.4680   0.0000   0.0000   0.0000   0.3617
   5.000   1.1697   0.01111   0.00555  -0.1363  0.6181  1.0000  -1.5125   0.0000   0.0000   0.0000   0.3584
   5.250   1.1951   0.01123   0.00567  -0.1358  0.6082  1.0000  -1.5593   0.0000   0.0000   0.0000   0.3552
   5.500   1.2203   0.01137   0.00580  -0.1354  0.5979  1.0000  -1.6085   0.0000   0.0000   0.0000   0.3521
   5.750   1.2447   0.01154   0.00597  -0.1348  0.5866  1.0000  -1.6623   0.0000   0.0000   0.0000   0.3491
   6.000   1.2685   0.01172   0.00615  -0.1341  0.5743  1.0000  -1.7231   0.0000   0.0000   0.0000   0.3462
   6.250   1.2920   0.01193   0.00635  -0.1334  0.5617  1.0000  -1.7909   0.0000   0.0000   0.0000   0.3434
   6.500   1.3147   0.01217   0.00656  -0.1326  0.5484  1.0000  -1.8655   0.0000   0.0000   0.0000   0.3406
   6.750   1.3364   0.01244   0.00682  -0.1315  0.5338  1.0000  -1.9412   0.0000   0.0000   0.0000   0.3378
   7.000   1.3571   0.01276   0.00710  -0.1304  0.5186  1.0000  -2.0191   0.0000   0.0000   0.0000   0.3351
   7.250   1.3766   0.01311   0.00742  -0.1290  0.5022  1.0000  -2.0991   0.0000   0.0000   0.0000   0.3323
   7.500   1.3945   0.01353   0.00778  -0.1274  0.4852  1.0000  -2.1779   0.0000   0.0000   0.0000   0.3296
   7.750   1.4106   0.01400   0.00819  -0.1255  0.4674  1.0000  -2.2567   0.0000   0.0000   0.0000   0.3268
   8.000   1.4243   0.01451   0.00865  -0.1232  0.4494  1.0000  -2.3318   0.0000   0.0000   0.0000   0.3240
   8.250   1.4364   0.01509   0.00918  -0.1207  0.4319  1.0000  -2.4207   0.0000   0.0000   0.0000   0.3211
   8.500   1.4478   0.01576   0.00979  -0.1183  0.4148  1.0000  -2.5189   0.0000   0.0000   0.0000   0.3183
   8.750   1.4587   0.01650   0.01048  -0.1159  0.3974  1.0000  -2.6171   0.0000   0.0000   0.0000   0.3157
   9.000   1.4695   0.01730   0.01124  -0.1136  0.3805  1.0000  -2.7159   0.0000   0.0000   0.0000   0.3131
   9.250   1.4794   0.01820   0.01209  -0.1113  0.3642  1.0000  -2.8134   0.0000   0.0000   0.0000   0.3106
   9.500   1.4894   0.01915   0.01300  -0.1092  0.3478  1.0000  -2.9120   0.0000   0.0000   0.0000   0.3082
   9.750   1.4988   0.02017   0.01398  -0.1070  0.3318  1.0000  -3.0101   0.0000   0.0000   0.0000   0.3059
  10.000   1.5072   0.02130   0.01507  -0.1049  0.3161  1.0000  -3.1095   0.0000   0.0000   0.0000   0.3036
  10.250   1.5160   0.02244   0.01619  -0.1029  0.3001  1.0000  -3.2110   0.0000   0.0000   0.0000   0.3015
  10.500   1.5233   0.02372   0.01743  -0.1008  0.2848  1.0000  -3.3090   0.0000   0.0000   0.0000   0.2993
  10.750   1.5307   0.02504   0.01872  -0.0989  0.2689  1.0000  -3.4079   0.0000   0.0000   0.0000   0.2973
  11.000   1.5371   0.02646   0.02010  -0.0969  0.2534  1.0000  -3.5046   0.0000   0.0000   0.0000   0.2952
  11.250   1.5422   0.02802   0.02160  -0.0949  0.2379  1.0000  -3.5980   0.0000   0.0000   0.0000   0.2932
  11.500   1.5476   0.02958   0.02313  -0.0930  0.2222  1.0000  -3.6931   0.0000   0.0000   0.0000   0.2913
  11.750   1.5515   0.03129   0.02480  -0.0911  0.2070  1.0000  -3.7839   0.0000   0.0000   0.0000   0.2894
  12.000   1.5549   0.03308   0.02654  -0.0892  0.1920  1.0000  -3.8733   0.0000   0.0000   0.0000   0.2876
  12.250   1.5582   0.03493   0.02835  -0.0874  0.1774  1.0000  -3.9629   0.0000   0.0000   0.0000   0.2858
  12.500   1.5601   0.03694   0.03031  -0.0856  0.1640  1.0000  -4.0481   0.0000   0.0000   0.0000   0.2841
  12.750   1.5633   0.03891   0.03227  -0.0840  0.1510  1.0000  -4.1375   0.0000   0.0000   0.0000   0.2825
  13.000   1.5653   0.04105   0.03437  -0.0825  0.1393  1.0000  -4.2228   0.0000   0.0000   0.0000   0.2809
  13.250   1.5669   0.04327   0.03658  -0.0810  0.1287  1.0000  -4.3103   0.0000   0.0000   0.0000   0.2794
  13.500   1.5690   0.04550   0.03881  -0.0796  0.1187  1.0000  -4.3994   0.0000   0.0000   0.0000   0.2779
  13.750   1.5704   0.04787   0.04117  -0.0783  0.1097  1.0000  -4.4857   0.0000   0.0000   0.0000   0.2765
  14.000   1.5713   0.05033   0.04365  -0.0771  0.1018  1.0000  -4.5702   0.0000   0.0000   0.0000   0.2752
  14.250   1.5718   0.05288   0.04621  -0.0760  0.0949  1.0000  -4.6532   0.0000   0.0000   0.0000   0.2739
  14.500   1.5720   0.05554   0.04888  -0.0750  0.0888  1.0000  -4.7345   0.0000   0.0000   0.0000   0.2727
  14.750   1.5713   0.05833   0.05170  -0.0740  0.0836  1.0000  -4.8123   0.0000   0.0000   0.0000   0.2716
  15.000   1.5705   0.06120   0.05459  -0.0732  0.0788  1.0000  -4.8895   0.0000   0.0000   0.0000   0.2705
  15.250   1.5710   0.06398   0.05744  -0.0725  0.0743  1.0000  -4.9703   0.0000   0.0000   0.0000   0.2695
  15.500   1.5692   0.06707   0.06056  -0.0719  0.0706  1.0000  -5.0421   0.0000   0.0000   0.0000   0.2686
  15.750   1.5675   0.07020   0.06374  -0.0713  0.0671  1.0000  -5.1164   0.0000   0.0000   0.0000   0.2677
  16.000   1.5666   0.07328   0.06690  -0.0709  0.0638  1.0000  -5.1935   0.0000   0.0000   0.0000   0.2669
  16.250   1.5622   0.07683   0.07047  -0.0706  0.0611  1.0000  -5.2690   0.0000   0.0000   0.0000   0.2662
  16.500   1.5619   0.07995   0.07370  -0.0704  0.0580  1.0000  -5.3619   0.0000   0.0000   0.0000   0.2655
  16.750   1.5563   0.08375   0.07751  -0.0703  0.0557  1.0000  -5.4314   0.0000   0.0000   0.0000   0.2650
  17.000   1.5557   0.08699   0.08086  -0.0703  0.0529  1.0000  -5.5229   0.0000   0.0000   0.0000   0.2644
  17.250   1.5501   0.09089   0.08478  -0.0705  0.0509  1.0000  -5.5927   0.0000   0.0000   0.0000   0.2641
  17.500   1.5487   0.09433   0.08833  -0.0707  0.0484  1.0000  -5.6805   0.0000   0.0000   0.0000   0.2637
  17.750   1.5430   0.09829   0.09230  -0.0711  0.0467  1.0000  -5.7481   0.0000   0.0000   0.0000   0.2635
  18.000   1.5415   0.10180   0.09594  -0.0716  0.0445  1.0000  -5.8319   0.0000   0.0000   0.0000   0.2632
  18.250   1.5376   0.10560   0.09976  -0.0722  0.0429  1.0000  -5.9060   0.0000   0.0000   0.0000   0.2631
  18.500   1.5354   0.10922   0.10348  -0.0729  0.0412  1.0000  -5.9836   0.0000   0.0000   0.0000   0.2630
  18.750   1.5333   0.11282   0.10714  -0.0737  0.0397  1.0000  -6.0642   0.0000   0.0000   0.0000   0.2630
  19.000   1.5314   0.11634   0.11068  -0.0745  0.0384  1.0000  -6.1438   0.0000   0.0000   0.0000   0.2629
  19.250   1.5306   0.11981   0.11426  -0.0755  0.0370  1.0000  -6.2258   0.0000   0.0000   0.0000   0.2629
  19.500   1.5305   0.12311   0.11758  -0.0764  0.0359  1.0000  -6.3162   0.0000   0.0000   0.0000   0.2629
  19.750   1.5310   0.12622   0.12074  -0.0773  0.0349  1.0000  -6.4065   0.0000   0.0000   0.0000   0.2628
  20.000   1.5314   0.12951   0.12414  -0.0785  0.0339  1.0000  -6.4919   0.0000   0.0000   0.0000   0.2629


