xflr5 v6.61

 Calculated polar for: QX0026  thickness=14.08

 1 1 Reynolds number fixed          Mach number fixed         

 xtrf =   1.000 (top)        1.000 (bottom)
 Mach =   0.000     Re =     0.120 e 6     Ncrit =   9.000

  alpha     CL        CD       CDp       Cm    Top Xtr Bot Xtr   Cpmin    Chinge    XCp    
 ------- -------- --------- --------- -------- ------- ------- -------- --------- ---------
  -9.750  -0.2062   0.11312   0.10867  -0.0712  0.9703  0.0953  -1.5191   0.0000   0.0000   0.0000  -0.1277
  -9.500  -0.1940   0.10941   0.10495  -0.0761  0.9677  0.0996  -1.5300   0.0000   0.0000   0.0000  -0.1758
  -9.250  -0.1961   0.10589   0.10146  -0.0798  0.9617  0.1015  -1.5927   0.0000   0.0000   0.0000  -0.1893
  -9.000  -0.1694   0.10249   0.09802  -0.0813  0.9599  0.1053  -1.4944   0.0000   0.0000   0.0000  -0.2669
  -8.750  -0.1965   0.09940   0.09501  -0.0898  0.9510  0.1092  -1.7055   0.0000   0.0000   0.0000  -0.2372
  -8.500  -0.1520   0.09578   0.09133  -0.0875  0.9511  0.1124  -1.5002   0.0000   0.0000   0.0000  -0.3641
  -8.250  -0.1587   0.09328   0.08886  -0.0904  0.9438  0.1172  -1.5588   0.0000   0.0000   0.0000  -0.3560
  -8.000  -0.1424   0.08923   0.08480  -0.0939  0.9410  0.1199  -1.5400   0.0000   0.0000   0.0000  -0.4485
  -7.750  -0.1375   0.08739   0.08297  -0.0931  0.9346  0.1235  -1.5090   0.0000   0.0000   0.0000  -0.4661
  -5.750  -0.1706   0.05223   0.04697  -0.1163  0.8785  0.1031  -2.1541   0.0000   0.0000   0.0000  -0.4569
  -5.500  -0.1682   0.05345   0.04824  -0.1130  0.8714  0.1195  -2.0301   0.0000   0.0000   0.0000  -0.4454
  -5.250  -0.1329   0.03864   0.03147  -0.1215  0.8691  0.0825  -2.4564   0.0000   0.0000   0.0000  -0.6968
  -5.000  -0.0915   0.03588   0.02799  -0.1248  0.8672  0.0845  -2.3983   0.0000   0.0000   0.0000  -1.1596
  -4.750  -0.0801   0.03500   0.02681  -0.1227  0.8606  0.0861  -2.3538   0.0000   0.0000   0.0000  -1.3322
  -4.500  -0.0445   0.03393   0.02566  -0.1245  0.8578  0.0899  -2.2322   0.0000   0.0000   0.0000  -2.6352
  -4.250  -0.0030   0.03259   0.02402  -0.1270  0.8557  0.0948  -2.1198   0.0000   0.0000   0.0000  -43.3412
  -4.000   0.0074   0.03248   0.02385  -0.1246  0.8487  0.0981  -2.0504   0.0000   0.0000   0.0000  17.6256
  -3.750   0.0471   0.03155   0.02281  -0.1267  0.8462  0.1049  -1.9331   0.0000   0.0000   0.0000   3.0117
  -3.500   0.0633   0.03141   0.02258  -0.1252  0.8400  0.1105  -1.8612   0.0000   0.0000   0.0000   2.2786
  -3.250   0.0980   0.03080   0.02199  -0.1265  0.8366  0.1200  -1.7443   0.0000   0.0000   0.0000   1.5713
  -3.000   0.1403   0.03009   0.02132  -0.1290  0.8346  0.1349  -1.6175   0.0000   0.0000   0.0000   1.1893
  -2.750   0.1511   0.03031   0.02155  -0.1267  0.8270  0.1465  -1.5545   0.0000   0.0000   0.0000   1.1055
  -2.500   0.1912   0.02965   0.02109  -0.1289  0.8245  0.1756  -1.4312   0.0000   0.0000   0.0000   0.9365
  -2.250   0.2071   0.02977   0.02139  -0.1276  0.8176  0.2064  -1.3550   0.0000   0.0000   0.0000   0.8765
  -2.000   0.2448   0.02919   0.02114  -0.1295  0.8145  0.2733  -1.2385   0.0000   0.0000   0.0000   0.7870
  -1.750   0.2883   0.02849   0.02084  -0.1322  0.8128  0.3665  -1.1048   0.0000   0.0000   0.0000   0.7146
  -1.500   0.2984   0.02887   0.02154  -0.1300  0.8045  0.4343  -1.0378   0.0000   0.0000   0.0000   0.6907
  -1.250   0.3372   0.02824   0.02145  -0.1313  0.8024  0.5749  -0.9176   0.0000   0.0000   0.0000   0.6431
  -1.000   0.3448   0.02875   0.02229  -0.1279  0.7942  0.6694  -0.8573   0.0000   0.0000   0.0000   0.6241
  -0.750   0.3745   0.02833   0.02212  -0.1265  0.7918  0.7818  -0.7596   0.0000   0.0000   0.0000   0.5899
  -0.500   0.3748   0.02883   0.02280  -0.1212  0.7833  0.8626  -0.7168   0.0000   0.0000   0.0000   0.5750
  -0.250   0.4169   0.02833   0.02223  -0.1226  0.7811  1.0000  -0.7296   0.0000   0.0000   0.0000   0.5448
   0.000   0.4329   0.02914   0.02288  -0.1217  0.7725  1.0000  -0.7403   0.0000   0.0000   0.0000   0.5314
   0.250   0.4744   0.02900   0.02256  -0.1238  0.7698  1.0000  -0.7698   0.0000   0.0000   0.0000   0.5105
   0.500   0.4925   0.02969   0.02313  -0.1230  0.7617  1.0000  -0.7833   0.0000   0.0000   0.0000   0.4987
   0.750   0.5361   0.02936   0.02266  -0.1251  0.7597  1.0000  -0.8162   0.0000   0.0000   0.0000   0.4818
   1.000   0.5517   0.03013   0.02334  -0.1238  0.7509  1.0000  -0.8295   0.0000   0.0000   0.0000   0.4724
   1.500   0.6112   0.03043   0.02346  -0.1244  0.7402  1.0000  -0.8789   0.0000   0.0000   0.0000   0.4507
   2.000   0.6713   0.03057   0.02346  -0.1248  0.7297  1.0000  -0.9324   0.0000   0.0000   0.0000   0.4323
   2.500   0.7224   0.03103   0.02383  -0.1241  0.7167  1.0000  -0.9821   0.0000   0.0000   0.0000   0.4174
   3.000   0.7697   0.03161   0.02435  -0.1229  0.7023  1.0000  -1.0318   0.0000   0.0000   0.0000   0.4046
   3.250   0.8121   0.03076   0.02346  -0.1241  0.7001  1.0000  -1.0745   0.0000   0.0000   0.0000   0.3974
   3.500   0.8556   0.02974   0.02241  -0.1254  0.6986  1.0000  -1.1195   0.0000   0.0000   0.0000   0.3908
   4.000   0.8971   0.03041   0.02309  -0.1233  0.6819  1.0000  -1.1737   0.0000   0.0000   0.0000   0.3810
   4.250   0.9394   0.02934   0.02201  -0.1244  0.6797  1.0000  -1.2236   0.0000   0.0000   0.0000   0.3756
   4.500   0.9851   0.02807   0.02073  -0.1259  0.6782  1.0000  -1.2782   0.0000   0.0000   0.0000   0.3707
   4.750   1.0063   0.02826   0.02094  -0.1248  0.6694  1.0000  -1.3123   0.0000   0.0000   0.0000   0.3665
   5.500   1.0999   0.02690   0.01965  -0.1245  0.6504  1.0000  -1.4558   0.0000   0.0000   0.0000   0.3547
   6.000   1.1737   0.02530   0.01808  -0.1257  0.6386  1.0000  -1.5804   0.0000   0.0000   0.0000   0.3479
   6.250   1.2007   0.02504   0.01786  -0.1251  0.6296  1.0000  -1.6394   0.0000   0.0000   0.0000   0.3446
   6.500   1.2293   0.02467   0.01753  -0.1247  0.6204  1.0000  -1.7090   0.0000   0.0000   0.0000   0.3415
   6.750   1.2589   0.02427   0.01716  -0.1244  0.6110  1.0000  -1.7890   0.0000   0.0000   0.0000   0.3385
   7.000   1.2885   0.02389   0.01680  -0.1241  0.6009  1.0000  -1.8749   0.0000   0.0000   0.0000   0.3356
   7.250   1.3179   0.02353   0.01645  -0.1238  0.5901  1.0000  -1.9645   0.0000   0.0000   0.0000   0.3329
   7.500   1.3477   0.02318   0.01611  -0.1236  0.5788  1.0000  -2.0591   0.0000   0.0000   0.0000   0.3302
   7.750   1.3720   0.02311   0.01606  -0.1227  0.5658  1.0000  -2.1485   0.0000   0.0000   0.0000   0.3275
   8.000   1.3927   0.02319   0.01617  -0.1212  0.5514  1.0000  -2.2333   0.0000   0.0000   0.0000   0.3248
   8.250   1.4204   0.02302   0.01596  -0.1208  0.5375  1.0000  -2.3351   0.0000   0.0000   0.0000   0.3223
   8.500   1.4351   0.02337   0.01634  -0.1185  0.5212  1.0000  -2.4306   0.0000   0.0000   0.0000   0.3195
   8.750   1.4552   0.02354   0.01649  -0.1171  0.5050  1.0000  -2.5510   0.0000   0.0000   0.0000   0.3169
   9.000   1.4721   0.02385   0.01677  -0.1151  0.4880  1.0000  -2.6648   0.0000   0.0000   0.0000   0.3143
   9.250   1.4827   0.02436   0.01727  -0.1123  0.4707  1.0000  -2.7635   0.0000   0.0000   0.0000   0.3114
   9.500   1.4945   0.02490   0.01777  -0.1098  0.4534  1.0000  -2.8668   0.0000   0.0000   0.0000   0.3087
   9.750   1.5069   0.02549   0.01829  -0.1074  0.4362  1.0000  -2.9726   0.0000   0.0000   0.0000   0.3060
  10.000   1.5128   0.02635   0.01915  -0.1044  0.4186  1.0000  -3.0613   0.0000   0.0000   0.0000   0.3033
  10.250   1.5194   0.02728   0.02006  -0.1015  0.4014  1.0000  -3.1524   0.0000   0.0000   0.0000   0.3007
  10.500   1.5265   0.02824   0.02096  -0.0989  0.3845  1.0000  -3.2487   0.0000   0.0000   0.0000   0.2982
  10.750   1.5304   0.02939   0.02211  -0.0960  0.3675  1.0000  -3.3365   0.0000   0.0000   0.0000   0.2957
  11.000   1.5336   0.03067   0.02338  -0.0933  0.3506  1.0000  -3.4221   0.0000   0.0000   0.0000   0.2933
  11.250   1.5374   0.03197   0.02463  -0.0907  0.3344  1.0000  -3.5104   0.0000   0.0000   0.0000   0.2910
  11.500   1.5385   0.03349   0.02615  -0.0880  0.3178  1.0000  -3.5902   0.0000   0.0000   0.0000   0.2887
  11.750   1.5395   0.03511   0.02775  -0.0854  0.3017  1.0000  -3.6697   0.0000   0.0000   0.0000   0.2865
  12.000   1.5406   0.03677   0.02936  -0.0830  0.2861  1.0000  -3.7499   0.0000   0.0000   0.0000   0.2844
  12.250   1.5392   0.03870   0.03130  -0.0806  0.2701  1.0000  -3.8209   0.0000   0.0000   0.0000   0.2824
  12.500   1.5384   0.04064   0.03320  -0.0783  0.2549  1.0000  -3.8946   0.0000   0.0000   0.0000   0.2804
  12.750   1.5362   0.04278   0.03533  -0.0761  0.2397  1.0000  -3.9624   0.0000   0.0000   0.0000   0.2785
  13.000   1.5339   0.04500   0.03751  -0.0740  0.2252  1.0000  -4.0298   0.0000   0.0000   0.0000   0.2767
  13.250   1.5311   0.04735   0.03984  -0.0721  0.2111  1.0000  -4.0945   0.0000   0.0000   0.0000   0.2750
  13.500   1.5286   0.04977   0.04222  -0.0703  0.1978  1.0000  -4.1619   0.0000   0.0000   0.0000   0.2734
  13.750   1.5258   0.05233   0.04478  -0.0686  0.1848  1.0000  -4.2271   0.0000   0.0000   0.0000   0.2718
  14.000   1.5241   0.05485   0.04722  -0.0671  0.1731  1.0000  -4.2965   0.0000   0.0000   0.0000   0.2703
  14.250   1.5220   0.05751   0.04987  -0.0657  0.1619  1.0000  -4.3624   0.0000   0.0000   0.0000   0.2690
  14.500   1.5200   0.06025   0.05262  -0.0645  0.1515  1.0000  -4.4272   0.0000   0.0000   0.0000   0.2677
  14.750   1.5185   0.06299   0.05536  -0.0634  0.1421  1.0000  -4.4937   0.0000   0.0000   0.0000   0.2664
  15.000   1.5174   0.06574   0.05811  -0.0624  0.1335  1.0000  -4.5613   0.0000   0.0000   0.0000   0.2653
  15.250   1.5169   0.06849   0.06086  -0.0615  0.1257  1.0000  -4.6297   0.0000   0.0000   0.0000   0.2642
  15.500   1.5171   0.07119   0.06358  -0.0607  0.1186  1.0000  -4.7020   0.0000   0.0000   0.0000   0.2631
  15.750   1.5188   0.07373   0.06609  -0.0599  0.1122  1.0000  -4.7822   0.0000   0.0000   0.0000   0.2620
  16.000   1.5224   0.07604   0.06836  -0.0592  0.1061  1.0000  -4.8698   0.0000   0.0000   0.0000   0.2608
  16.250   1.5210   0.07912   0.07160  -0.0587  0.1007  1.0000  -4.9363   0.0000   0.0000   0.0000   0.2600
  16.500   1.5233   0.08173   0.07426  -0.0581  0.0957  1.0000  -5.0294   0.0000   0.0000   0.0000   0.2590
  16.750   1.5301   0.08367   0.07612  -0.0574  0.0908  1.0000  -5.1481   0.0000   0.0000   0.0000   0.2578
  17.000   1.5291   0.08680   0.07942  -0.0572  0.0866  1.0000  -5.2217   0.0000   0.0000   0.0000   0.2571
  17.250   1.5331   0.08924   0.08190  -0.0567  0.0826  1.0000  -5.3202   0.0000   0.0000   0.0000   0.2562
  17.500   1.5437   0.09074   0.08331  -0.0560  0.0785  1.0000  -5.4577   0.0000   0.0000   0.0000   0.2549
  17.750   1.5388   0.09451   0.08735  -0.0562  0.0755  1.0000  -5.5062   0.0000   0.0000   0.0000   0.2545
  18.000   1.5542   0.09539   0.08808  -0.0553  0.0719  1.0000  -5.6728   0.0000   0.0000   0.0000   0.2531
  18.250   1.5452   0.09979   0.09281  -0.0560  0.0697  1.0000  -5.6949   0.0000   0.0000   0.0000   0.2531
  18.500   1.5574   0.10114   0.09410  -0.0555  0.0668  1.0000  -5.8434   0.0000   0.0000   0.0000   0.2519
  18.750   1.5522   0.10508   0.09829  -0.0561  0.0650  1.0000  -5.8821   0.0000   0.0000   0.0000   0.2518
  19.000   1.5476   0.10896   0.10239  -0.0569  0.0632  1.0000  -5.9251   0.0000   0.0000   0.0000   0.2518
  19.250   1.5679   0.10922   0.10251  -0.0559  0.0607  1.0000  -6.1194   0.0000   0.0000   0.0000   0.2501
  19.500   1.5497   0.11513   0.10880  -0.0581  0.0599  1.0000  -6.0766   0.0000   0.0000   0.0000   0.2513
  19.750   1.5343   0.12086   0.11483  -0.0605  0.0591  1.0000  -6.0455   0.0000   0.0000   0.0000   0.2526
  20.000   1.5223   0.12619   0.12041  -0.0630  0.0581  1.0000  -6.0336   0.0000   0.0000   0.0000   0.2538


