xflr5 v6.61

 Calculated polar for: QX0026 root

 1 1 Reynolds number fixed          Mach number fixed         

 xtrf =   1.000 (top)        1.000 (bottom)
 Mach =   0.000     Re =     0.620 e 6     Ncrit =   9.000

  alpha     CL        CD       CDp       Cm    Top Xtr Bot Xtr   Cpmin    Chinge    XCp    
 ------- -------- --------- --------- -------- ------- ------- -------- --------- ---------
 -10.000  -0.5111   0.02169   0.01629  -0.1224  0.8065  0.0238  -6.0661   0.0000   0.0000   0.0000  -0.0082
  -9.750  -0.4875   0.02079   0.01523  -0.1224  0.8032  0.0244  -5.8629   0.0000   0.0000   0.0000  -0.0200
  -9.500  -0.4631   0.02000   0.01426  -0.1224  0.8003  0.0249  -5.6587   0.0000   0.0000   0.0000  -0.0334
  -9.250  -0.4394   0.01899   0.01308  -0.1224  0.7975  0.0256  -5.4636   0.0000   0.0000   0.0000  -0.0479
  -9.000  -0.4145   0.01823   0.01231  -0.1225  0.7943  0.0263  -5.2433   0.0000   0.0000   0.0000  -0.0651
  -8.750  -0.3883   0.01775   0.01178  -0.1226  0.7915  0.0270  -5.0162   0.0000   0.0000   0.0000  -0.0857
  -8.500  -0.3622   0.01722   0.01114  -0.1226  0.7891  0.0278  -4.8019   0.0000   0.0000   0.0000  -0.1092
  -8.250  -0.3358   0.01666   0.01048  -0.1226  0.7861  0.0285  -4.5942   0.0000   0.0000   0.0000  -0.1366
  -8.000  -0.3088   0.01620   0.00990  -0.1227  0.7831  0.0292  -4.3866   0.0000   0.0000   0.0000  -0.1695
  -7.750  -0.2835   0.01534   0.00900  -0.1227  0.7807  0.0301  -4.2049   0.0000   0.0000   0.0000  -0.2059
  -7.500  -0.2564   0.01496   0.00859  -0.1228  0.7783  0.0311  -4.0052   0.0000   0.0000   0.0000  -0.2534
  -7.250  -0.2291   0.01458   0.00817  -0.1229  0.7753  0.0323  -3.8132   0.0000   0.0000   0.0000  -0.3128
  -7.000  -0.2015   0.01421   0.00771  -0.1230  0.7726  0.0333  -3.6286   0.0000   0.0000   0.0000  -0.3888
  -6.750  -0.1749   0.01362   0.00707  -0.1230  0.7702  0.0345  -3.4537   0.0000   0.0000   0.0000  -0.4848
  -6.500  -0.1474   0.01325   0.00669  -0.1232  0.7678  0.0358  -3.2790   0.0000   0.0000   0.0000  -0.6211
  -6.250  -0.1195   0.01294   0.00635  -0.1233  0.7649  0.0373  -3.1133   0.0000   0.0000   0.0000  -0.8231
  -6.000  -0.0919   0.01256   0.00591  -0.1234  0.7622  0.0390  -2.9533   0.0000   0.0000   0.0000  -1.1445
  -5.750  -0.0639   0.01226   0.00559  -0.1235  0.7599  0.0410  -2.7877   0.0000   0.0000   0.0000  -1.7540
  -5.500  -0.0356   0.01203   0.00532  -0.1237  0.7571  0.0430  -2.6302   0.0000   0.0000   0.0000  -3.3445
  -5.250  -0.0079   0.01165   0.00496  -0.1238  0.7541  0.0454  -2.4888   0.0000   0.0000   0.0000  -15.8903
  -5.000   0.0206   0.01144   0.00470  -0.1240  0.7515  0.0481  -2.3454   0.0000   0.0000   0.0000   6.4515
  -4.750   0.0489   0.01116   0.00440  -0.1242  0.7493  0.0514  -2.2042   0.0000   0.0000   0.0000   2.8629
  -4.500   0.0772   0.01092   0.00418  -0.1244  0.7464  0.0554  -2.0654   0.0000   0.0000   0.0000   1.9046
  -4.250   0.1057   0.01071   0.00397  -0.1246  0.7436  0.0603  -1.9279   0.0000   0.0000   0.0000   1.4579
  -4.000   0.1344   0.01048   0.00374  -0.1248  0.7411  0.0669  -1.7928   0.0000   0.0000   0.0000   1.2008
  -3.500   0.1915   0.01005   0.00341  -0.1253  0.7359  0.0919  -1.5471   0.0000   0.0000   0.0000   0.9174
  -3.250   0.2200   0.00984   0.00328  -0.1255  0.7330  0.1128  -1.4277   0.0000   0.0000   0.0000   0.8310
  -3.000   0.2488   0.00965   0.00315  -0.1258  0.7304  0.1361  -1.3093   0.0000   0.0000   0.0000   0.7640
  -2.750   0.2776   0.00949   0.00306  -0.1261  0.7280  0.1612  -1.1930   0.0000   0.0000   0.0000   0.7109
  -2.500   0.3060   0.00931   0.00299  -0.1263  0.7247  0.1899  -1.0799   0.0000   0.0000   0.0000   0.6681
  -2.250   0.3346   0.00913   0.00290  -0.1266  0.7217  0.2240  -0.9769   0.0000   0.0000   0.0000   0.6325
  -2.000   0.3634   0.00893   0.00282  -0.1269  0.7190  0.2682  -0.8763   0.0000   0.0000   0.0000   0.6024
  -1.750   0.3917   0.00874   0.00280  -0.1271  0.7157  0.3196  -0.7794   0.0000   0.0000   0.0000   0.5770
  -1.500   0.4202   0.00858   0.00277  -0.1274  0.7124  0.3685  -0.7899   0.0000   0.0000   0.0000   0.5548
  -1.250   0.4489   0.00842   0.00273  -0.1277  0.7096  0.4196  -0.8065   0.0000   0.0000   0.0000   0.5354
  -1.000   0.4773   0.00826   0.00273  -0.1279  0.7067  0.4760  -0.8229   0.0000   0.0000   0.0000   0.5183
  -0.750   0.5054   0.00810   0.00275  -0.1280  0.7029  0.5336  -0.8407   0.0000   0.0000   0.0000   0.5032
  -0.500   0.5338   0.00796   0.00273  -0.1281  0.6994  0.5864  -0.8606   0.0000   0.0000   0.0000   0.4894
  -0.250   0.5617   0.00785   0.00276  -0.1282  0.6956  0.6389  -0.8803   0.0000   0.0000   0.0000   0.4771
   0.000   0.5897   0.00776   0.00279  -0.1281  0.6916  0.6836  -0.9000   0.0000   0.0000   0.0000   0.4658
   0.250   0.6180   0.00771   0.00280  -0.1282  0.6883  0.7205  -0.9200   0.0000   0.0000   0.0000   0.4555
   0.500   0.6456   0.00766   0.00283  -0.1281  0.6845  0.7543  -0.9417   0.0000   0.0000   0.0000   0.4461
   0.750   0.6729   0.00758   0.00285  -0.1279  0.6802  0.7889  -0.9647   0.0000   0.0000   0.0000   0.4374
   1.000   0.6998   0.00752   0.00286  -0.1275  0.6767  0.8275  -0.9876   0.0000   0.0000   0.0000   0.4292
   1.250   0.7243   0.00742   0.00292  -0.1266  0.6720  0.8763  -1.0090   0.0000   0.0000   0.0000   0.4215
   1.500   0.7494   0.00731   0.00292  -0.1257  0.6679  0.9415  -1.0311   0.0000   0.0000   0.0000   0.4140
   1.750   0.7907   0.00729   0.00289  -0.1286  0.6631  1.0001  -1.0644   0.0000   0.0000   0.0000   0.4086
   2.000   0.8188   0.00733   0.00290  -0.1287  0.6583  1.0001  -1.0924   0.0000   0.0000   0.0000   0.4028
   2.250   0.8470   0.00740   0.00293  -0.1289  0.6540  1.0001  -1.1205   0.0000   0.0000   0.0000   0.3975
   2.500   0.8749   0.00745   0.00297  -0.1290  0.6486  1.0001  -1.1491   0.0000   0.0000   0.0000   0.3924
   2.750   0.9028   0.00751   0.00300  -0.1290  0.6431  1.0001  -1.1781   0.0000   0.0000   0.0000   0.3876
   3.000   0.9305   0.00757   0.00304  -0.1291  0.6369  1.0001  -1.2083   0.0000   0.0000   0.0000   0.3831
   3.250   0.9582   0.00765   0.00310  -0.1292  0.6314  1.0001  -1.2421   0.0000   0.0000   0.0000   0.3788
   3.500   0.9859   0.00772   0.00316  -0.1292  0.6257  1.0001  -1.2764   0.0000   0.0000   0.0000   0.3747
   3.750   1.0135   0.00780   0.00324  -0.1292  0.6195  1.0001  -1.3114   0.0000   0.0000   0.0000   0.3709
   4.250   1.0678   0.00798   0.00339  -0.1292  0.6053  1.0001  -1.3816   0.0000   0.0000   0.0000   0.3637
   4.500   1.0947   0.00809   0.00349  -0.1291  0.5976  1.0001  -1.4242   0.0000   0.0000   0.0000   0.3603
   4.750   1.1212   0.00821   0.00359  -0.1289  0.5890  1.0001  -1.4680   0.0000   0.0000   0.0000   0.3570
   5.000   1.1472   0.00836   0.00371  -0.1287  0.5799  1.0001  -1.5119   0.0000   0.0000   0.0000   0.3539
   5.250   1.1730   0.00852   0.00385  -0.1284  0.5701  1.0001  -1.5557   0.0000   0.0000   0.0000   0.3508
   5.500   1.1985   0.00868   0.00400  -0.1281  0.5596  1.0001  -1.5996   0.0000   0.0000   0.0000   0.3479
   5.750   1.2237   0.00886   0.00416  -0.1277  0.5486  1.0001  -1.6437   0.0000   0.0000   0.0000   0.3450
   6.000   1.2484   0.00906   0.00434  -0.1273  0.5371  1.0001  -1.7046   0.0000   0.0000   0.0000   0.3423
   6.250   1.2726   0.00928   0.00454  -0.1268  0.5243  1.0001  -1.7682   0.0000   0.0000   0.0000   0.3396
   6.500   1.2959   0.00953   0.00476  -0.1261  0.5099  1.0001  -1.8335   0.0000   0.0000   0.0000   0.3369
   6.750   1.3170   0.00987   0.00504  -0.1250  0.4922  1.0001  -1.9053   0.0000   0.0000   0.0000   0.3342
   7.000   1.3364   0.01028   0.00535  -0.1237  0.4704  1.0001  -1.9810   0.0000   0.0000   0.0000   0.3314
   7.250   1.3547   0.01073   0.00571  -0.1222  0.4495  1.0001  -2.0581   0.0000   0.0000   0.0000   0.3287
   7.500   1.3729   0.01117   0.00609  -0.1207  0.4309  1.0001  -2.1359   0.0000   0.0000   0.0000   0.3260
   7.750   1.3895   0.01164   0.00650  -0.1189  0.4127  1.0001  -2.2136   0.0000   0.0000   0.0000   0.3233
   8.000   1.4022   0.01218   0.00697  -0.1165  0.3939  1.0001  -2.3104   0.0000   0.0000   0.0000   0.3204
   8.250   1.4138   0.01284   0.00753  -0.1140  0.3746  1.0001  -2.4068   0.0000   0.0000   0.0000   0.3175
   8.500   1.4262   0.01352   0.00815  -0.1118  0.3559  1.0001  -2.5062   0.0000   0.0000   0.0000   0.3149
   8.750   1.4386   0.01425   0.00882  -0.1097  0.3384  1.0001  -2.6070   0.0000   0.0000   0.0000   0.3123
   9.000   1.4502   0.01507   0.00958  -0.1076  0.3208  1.0001  -2.7065   0.0000   0.0000   0.0000   0.3099
   9.250   1.4608   0.01600   0.01043  -0.1056  0.3033  1.0001  -2.8049   0.0000   0.0000   0.0000   0.3075
   9.500   1.4716   0.01697   0.01135  -0.1036  0.2866  1.0001  -2.9107   0.0000   0.0000   0.0000   0.3052
   9.750   1.4819   0.01801   0.01233  -0.1018  0.2694  1.0001  -3.0164   0.0000   0.0000   0.0000   0.3030
  10.000   1.4910   0.01917   0.01341  -0.0998  0.2512  1.0001  -3.1196   0.0000   0.0000   0.0000   0.3009
  10.250   1.4992   0.02043   0.01459  -0.0979  0.2349  1.0001  -3.2210   0.0000   0.0000   0.0000   0.2988
  10.500   1.5083   0.02165   0.01576  -0.0961  0.2198  1.0001  -3.3262   0.0000   0.0000   0.0000   0.2967
  10.750   1.5169   0.02293   0.01699  -0.0944  0.2037  1.0001  -3.4308   0.0000   0.0000   0.0000   0.2948
  11.000   1.5236   0.02436   0.01834  -0.0925  0.1887  1.0001  -3.5309   0.0000   0.0000   0.0000   0.2928
  11.250   1.5314   0.02573   0.01968  -0.0908  0.1762  1.0001  -3.6348   0.0000   0.0000   0.0000   0.2909
  11.500   1.5389   0.02715   0.02106  -0.0891  0.1644  1.0001  -3.7385   0.0000   0.0000   0.0000   0.2890
  11.750   1.5465   0.02857   0.02245  -0.0875  0.1515  1.0001  -3.8436   0.0000   0.0000   0.0000   0.2872
  12.000   1.5520   0.03016   0.02399  -0.0858  0.1395  1.0001  -3.9428   0.0000   0.0000   0.0000   0.2854
  12.250   1.5578   0.03176   0.02556  -0.0841  0.1289  1.0001  -4.0434   0.0000   0.0000   0.0000   0.2836
  12.500   1.5628   0.03345   0.02722  -0.0825  0.1191  1.0001  -4.1418   0.0000   0.0000   0.0000   0.2819
  12.750   1.5684   0.03514   0.02890  -0.0810  0.1093  1.0001  -4.2427   0.0000   0.0000   0.0000   0.2802
  13.000   1.5733   0.03693   0.03066  -0.0795  0.0991  1.0001  -4.3419   0.0000   0.0000   0.0000   0.2786
  13.250   1.5774   0.03884   0.03254  -0.0780  0.0902  1.0001  -4.4387   0.0000   0.0000   0.0000   0.2770
  13.500   1.5815   0.04077   0.03447  -0.0767  0.0827  1.0001  -4.5365   0.0000   0.0000   0.0000   0.2755
  13.750   1.5855   0.04277   0.03646  -0.0754  0.0763  1.0001  -4.6402   0.0000   0.0000   0.0000   0.2740
  14.000   1.5895   0.04481   0.03851  -0.0742  0.0707  1.0001  -4.7447   0.0000   0.0000   0.0000   0.2726
  14.250   1.5935   0.04690   0.04062  -0.0730  0.0658  1.0001  -4.8492   0.0000   0.0000   0.0000   0.2713
  14.500   1.5969   0.04908   0.04282  -0.0720  0.0614  1.0001  -4.9517   0.0000   0.0000   0.0000   0.2699
  14.750   1.5999   0.05131   0.04508  -0.0709  0.0573  1.0001  -5.0533   0.0000   0.0000   0.0000   0.2687
  15.000   1.6038   0.05353   0.04733  -0.0701  0.0535  1.0001  -5.1581   0.0000   0.0000   0.0000   0.2674
  15.250   1.6066   0.05589   0.04973  -0.0692  0.0501  1.0001  -5.2587   0.0000   0.0000   0.0000   0.2663
  15.500   1.6077   0.05848   0.05235  -0.0684  0.0470  1.0001  -5.3525   0.0000   0.0000   0.0000   0.2651
  15.750   1.6104   0.06094   0.05486  -0.0677  0.0438  1.0001  -5.4535   0.0000   0.0000   0.0000   0.2641
  16.000   1.6112   0.06361   0.05758  -0.0670  0.0411  1.0001  -5.5531   0.0000   0.0000   0.0000   0.2630
  16.250   1.6101   0.06657   0.06057  -0.0664  0.0386  1.0001  -5.6505   0.0000   0.0000   0.0000   0.2621
  16.500   1.6106   0.06939   0.06346  -0.0659  0.0361  1.0001  -5.7548   0.0000   0.0000   0.0000   0.2612
  17.000   1.6069   0.07575   0.06994  -0.0652  0.0322  1.0001  -5.9406   0.0000   0.0000   0.0000   0.2596
  17.250   1.6023   0.07933   0.07357  -0.0649  0.0307  1.0001  -6.0200   0.0000   0.0000   0.0000   0.2590
  17.500   1.5993   0.08275   0.07707  -0.0648  0.0293  1.0001  -6.1052   0.0000   0.0000   0.0000   0.2583
  17.750   1.5965   0.08621   0.08061  -0.0648  0.0281  1.0001  -6.1920   0.0000   0.0000   0.0000   0.2578
  18.000   1.5902   0.09018   0.08465  -0.0649  0.0271  1.0001  -6.2660   0.0000   0.0000   0.0000   0.2574
  18.250   1.5829   0.09438   0.08892  -0.0652  0.0263  1.0001  -6.3316   0.0000   0.0000   0.0000   0.2572
  18.500   1.5799   0.09801   0.09266  -0.0656  0.0255  1.0001  -6.4206   0.0000   0.0000   0.0000   0.2568
  18.750   1.5754   0.10188   0.09662  -0.0661  0.0248  1.0001  -6.5012   0.0000   0.0000   0.0000   0.2566
  19.000   1.5692   0.10601   0.10083  -0.0667  0.0242  1.0001  -6.5710   0.0000   0.0000   0.0000   0.2566
  19.250   1.5609   0.11050   0.10540  -0.0676  0.0237  1.0001  -6.6270   0.0000   0.0000   0.0000   0.2567
  19.500   1.5495   0.11551   0.11048  -0.0687  0.0232  1.0001  -6.6606   0.0000   0.0000   0.0000   0.2571
  19.750   1.5458   0.11946   0.11454  -0.0697  0.0227  1.0001  -6.7388   0.0000   0.0000   0.0000   0.2572
  20.000   1.5415   0.12350   0.11869  -0.0708  0.0222  1.0001  -6.8129   0.0000   0.0000   0.0000   0.2573


