xflr5 v6.61

 Calculated polar for: QX0026 root

 1 1 Reynolds number fixed          Mach number fixed         

 xtrf =   1.000 (top)        1.000 (bottom)
 Mach =   0.000     Re =     0.880 e 6     Ncrit =   9.000

  alpha     CL        CD       CDp       Cm    Top Xtr Bot Xtr   Cpmin    Chinge    XCp    
 ------- -------- --------- --------- -------- ------- ------- -------- --------- ---------
 -10.000  -0.5282   0.01766   0.01221  -0.1208  0.7879  0.0212  -6.3402   0.0000   0.0000   0.0000   0.0029
  -9.750  -0.5019   0.01720   0.01166  -0.1209  0.7848  0.0215  -6.0988   0.0000   0.0000   0.0000  -0.0094
  -9.500  -0.4791   0.01607   0.01044  -0.1208  0.7819  0.0222  -5.8968   0.0000   0.0000   0.0000  -0.0209
  -9.250  -0.4529   0.01561   0.00992  -0.1209  0.7795  0.0228  -5.6567   0.0000   0.0000   0.0000  -0.0359
  -9.000  -0.4259   0.01524   0.00952  -0.1210  0.7767  0.0234  -5.4142   0.0000   0.0000   0.0000  -0.0535
  -8.750  -0.3987   0.01488   0.00911  -0.1212  0.7739  0.0241  -5.1774   0.0000   0.0000   0.0000  -0.0735
  -8.500  -0.3715   0.01451   0.00866  -0.1213  0.7713  0.0247  -4.9476   0.0000   0.0000   0.0000  -0.0966
  -8.250  -0.3440   0.01421   0.00826  -0.1213  0.7690  0.0252  -4.7210   0.0000   0.0000   0.0000  -0.1236
  -8.000  -0.3184   0.01345   0.00747  -0.1214  0.7662  0.0261  -4.5174   0.0000   0.0000   0.0000  -0.1529
  -7.750  -0.2910   0.01308   0.00708  -0.1215  0.7635  0.0268  -4.3098   0.0000   0.0000   0.0000  -0.1903
  -7.500  -0.2632   0.01279   0.00674  -0.1217  0.7611  0.0277  -4.1044   0.0000   0.0000   0.0000  -0.2362
  -7.250  -0.2351   0.01254   0.00643  -0.1218  0.7588  0.0287  -3.9027   0.0000   0.0000   0.0000  -0.2935
  -7.000  -0.2072   0.01221   0.00605  -0.1220  0.7561  0.0296  -3.7092   0.0000   0.0000   0.0000  -0.3661
  -6.750  -0.1799   0.01176   0.00559  -0.1221  0.7534  0.0308  -3.5225   0.0000   0.0000   0.0000  -0.4590
  -6.500  -0.1517   0.01150   0.00530  -0.1223  0.7510  0.0319  -3.3444   0.0000   0.0000   0.0000  -0.5903
  -6.250  -0.1233   0.01130   0.00503  -0.1224  0.7487  0.0332  -3.1707   0.0000   0.0000   0.0000  -0.7831
  -6.000  -0.0953   0.01093   0.00466  -0.1226  0.7459  0.0347  -3.0046   0.0000   0.0000   0.0000  -1.0850
  -5.750  -0.0669   0.01070   0.00442  -0.1228  0.7431  0.0365  -2.8332   0.0000   0.0000   0.0000  -1.6522
  -5.500  -0.0381   0.01055   0.00422  -0.1230  0.7407  0.0382  -2.6717   0.0000   0.0000   0.0000  -3.0859
  -5.250  -0.0099   0.01025   0.00391  -0.1232  0.7383  0.0406  -2.5240   0.0000   0.0000   0.0000  -12.5657
  -5.000   0.0189   0.01007   0.00372  -0.1234  0.7355  0.0429  -2.3751   0.0000   0.0000   0.0000   6.9903
  -4.750   0.0474   0.00982   0.00348  -0.1236  0.7329  0.0458  -2.2303   0.0000   0.0000   0.0000   2.9325
  -4.500   0.0762   0.00966   0.00328  -0.1238  0.7305  0.0490  -2.0864   0.0000   0.0000   0.0000   1.9177
  -4.250   0.1051   0.00950   0.00311  -0.1241  0.7282  0.0534  -1.9443   0.0000   0.0000   0.0000   1.4607
  -4.000   0.1338   0.00930   0.00295  -0.1243  0.7254  0.0590  -1.8058   0.0000   0.0000   0.0000   1.2005
  -3.750   0.1627   0.00911   0.00279  -0.1246  0.7227  0.0669  -1.6777   0.0000   0.0000   0.0000   1.0323
  -3.500   0.1915   0.00893   0.00264  -0.1248  0.7202  0.0792  -1.5543   0.0000   0.0000   0.0000   0.9148
  -3.250   0.2203   0.00876   0.00253  -0.1251  0.7178  0.0970  -1.4327   0.0000   0.0000   0.0000   0.8281
  -3.000   0.2491   0.00859   0.00244  -0.1254  0.7148  0.1170  -1.3132   0.0000   0.0000   0.0000   0.7615
  -2.750   0.2779   0.00843   0.00235  -0.1257  0.7118  0.1386  -1.1960   0.0000   0.0000   0.0000   0.7086
  -2.500   0.3068   0.00829   0.00226  -0.1259  0.7091  0.1613  -1.0812   0.0000   0.0000   0.0000   0.6656
  -2.250   0.3357   0.00814   0.00220  -0.1262  0.7061  0.1888  -0.9765   0.0000   0.0000   0.0000   0.6301
  -2.000   0.3645   0.00798   0.00214  -0.1265  0.7028  0.2205  -0.8755   0.0000   0.0000   0.0000   0.6002
  -1.750   0.3932   0.00781   0.00208  -0.1268  0.7000  0.2613  -0.7775   0.0000   0.0000   0.0000   0.5748
  -1.500   0.4220   0.00765   0.00205  -0.1271  0.6973  0.3095  -0.7932   0.0000   0.0000   0.0000   0.5528
  -1.250   0.4507   0.00750   0.00203  -0.1274  0.6938  0.3553  -0.8097   0.0000   0.0000   0.0000   0.5336
  -1.000   0.4794   0.00734   0.00201  -0.1277  0.6902  0.4022  -0.8264   0.0000   0.0000   0.0000   0.5166
  -0.750   0.5080   0.00721   0.00199  -0.1279  0.6868  0.4550  -0.8440   0.0000   0.0000   0.0000   0.5016
  -0.500   0.5365   0.00706   0.00201  -0.1281  0.6827  0.5082  -0.8639   0.0000   0.0000   0.0000   0.4882
  -0.250   0.5650   0.00694   0.00201  -0.1283  0.6791  0.5598  -0.8839   0.0000   0.0000   0.0000   0.4760
   0.000   0.5935   0.00685   0.00204  -0.1285  0.6757  0.6091  -0.9039   0.0000   0.0000   0.0000   0.4650
   0.250   0.6218   0.00676   0.00208  -0.1286  0.6715  0.6545  -0.9239   0.0000   0.0000   0.0000   0.4549
   0.500   0.6502   0.00671   0.00210  -0.1287  0.6677  0.6932  -0.9461   0.0000   0.0000   0.0000   0.4456
   0.750   0.6785   0.00668   0.00214  -0.1288  0.6636  0.7266  -0.9696   0.0000   0.0000   0.0000   0.4371
   1.000   0.7066   0.00662   0.00217  -0.1288  0.6591  0.7575  -0.9931   0.0000   0.0000   0.0000   0.4293
   1.250   0.7343   0.00659   0.00220  -0.1288  0.6549  0.7890  -1.0164   0.0000   0.0000   0.0000   0.4219
   1.500   0.7613   0.00651   0.00225  -0.1285  0.6500  0.8286  -1.0394   0.0000   0.0000   0.0000   0.4151
   1.750   0.7863   0.00644   0.00230  -0.1278  0.6458  0.8820  -1.0633   0.0000   0.0000   0.0000   0.4084
   2.000   0.8116   0.00633   0.00233  -0.1269  0.6408  0.9539  -1.0896   0.0000   0.0000   0.0000   0.4020
   2.250   0.8495   0.00635   0.00232  -0.1292  0.6353  1.0001  -1.1240   0.0000   0.0000   0.0000   0.3973
   2.500   0.8778   0.00640   0.00237  -0.1294  0.6293  1.0001  -1.1531   0.0000   0.0000   0.0000   0.3923
   2.750   0.9057   0.00649   0.00240  -0.1295  0.6240  1.0001  -1.1822   0.0000   0.0000   0.0000   0.3875
   3.000   0.9340   0.00654   0.00246  -0.1296  0.6180  1.0001  -1.2126   0.0000   0.0000   0.0000   0.3831
   3.250   0.9618   0.00663   0.00252  -0.1297  0.6124  1.0001  -1.2465   0.0000   0.0000   0.0000   0.3788
   3.500   0.9898   0.00671   0.00259  -0.1298  0.6055  1.0001  -1.2812   0.0000   0.0000   0.0000   0.3748
   3.750   1.0174   0.00681   0.00266  -0.1299  0.5986  1.0001  -1.3163   0.0000   0.0000   0.0000   0.3710
   4.000   1.0445   0.00693   0.00274  -0.1298  0.5909  1.0001  -1.3513   0.0000   0.0000   0.0000   0.3673
   4.250   1.0717   0.00704   0.00284  -0.1298  0.5825  1.0001  -1.3865   0.0000   0.0000   0.0000   0.3638
   4.500   1.0986   0.00717   0.00295  -0.1298  0.5734  1.0001  -1.4295   0.0000   0.0000   0.0000   0.3605
   4.750   1.1253   0.00731   0.00306  -0.1296  0.5638  1.0001  -1.4736   0.0000   0.0000   0.0000   0.3572
   5.000   1.1516   0.00746   0.00319  -0.1295  0.5535  1.0001  -1.5177   0.0000   0.0000   0.0000   0.3541
   5.250   1.1777   0.00763   0.00333  -0.1293  0.5425  1.0001  -1.5618   0.0000   0.0000   0.0000   0.3511
   5.500   1.2033   0.00781   0.00348  -0.1290  0.5307  1.0001  -1.6059   0.0000   0.0000   0.0000   0.3482
   5.750   1.2283   0.00803   0.00366  -0.1286  0.5180  1.0001  -1.6498   0.0000   0.0000   0.0000   0.3454
   6.250   1.2764   0.00854   0.00407  -0.1276  0.4886  1.0001  -1.7746   0.0000   0.0000   0.0000   0.3399
   6.500   1.2980   0.00891   0.00434  -0.1266  0.4670  1.0001  -1.8380   0.0000   0.0000   0.0000   0.3371
   6.750   1.3181   0.00933   0.00466  -0.1254  0.4433  1.0001  -1.9090   0.0000   0.0000   0.0000   0.3344
   7.000   1.3382   0.00975   0.00499  -0.1243  0.4235  1.0001  -1.9867   0.0000   0.0000   0.0000   0.3317
   7.250   1.3579   0.01017   0.00534  -0.1230  0.4051  1.0001  -2.0661   0.0000   0.0000   0.0000   0.3291
   7.500   1.3764   0.01063   0.00571  -0.1216  0.3861  1.0001  -2.1445   0.0000   0.0000   0.0000   0.3264
   7.750   1.3924   0.01113   0.00613  -0.1197  0.3663  1.0001  -2.2235   0.0000   0.0000   0.0000   0.3237
   8.000   1.4062   0.01166   0.00658  -0.1175  0.3474  1.0001  -2.3245   0.0000   0.0000   0.0000   0.3209
   8.250   1.4204   0.01224   0.00708  -0.1154  0.3293  1.0001  -2.4274   0.0000   0.0000   0.0000   0.3182
   8.500   1.4336   0.01289   0.00766  -0.1133  0.3113  1.0001  -2.5292   0.0000   0.0000   0.0000   0.3156
   8.750   1.4463   0.01361   0.00830  -0.1113  0.2940  1.0001  -2.6312   0.0000   0.0000   0.0000   0.3130
   9.000   1.4590   0.01438   0.00901  -0.1093  0.2766  1.0001  -2.7341   0.0000   0.0000   0.0000   0.3106
   9.250   1.4709   0.01523   0.00978  -0.1074  0.2583  1.0001  -2.8407   0.0000   0.0000   0.0000   0.3083
   9.500   1.4815   0.01621   0.01067  -0.1054  0.2411  1.0001  -2.9466   0.0000   0.0000   0.0000   0.3060
   9.750   1.4919   0.01724   0.01163  -0.1035  0.2255  1.0001  -3.0533   0.0000   0.0000   0.0000   0.3038
  10.000   1.5037   0.01822   0.01256  -0.1019  0.2101  1.0001  -3.1649   0.0000   0.0000   0.0000   0.3017
  10.250   1.5139   0.01933   0.01360  -0.1001  0.1944  1.0001  -3.2733   0.0000   0.0000   0.0000   0.2996
  10.500   1.5226   0.02056   0.01476  -0.0983  0.1809  1.0001  -3.3783   0.0000   0.0000   0.0000   0.2976
  10.750   1.5331   0.02170   0.01587  -0.0967  0.1688  1.0001  -3.4895   0.0000   0.0000   0.0000   0.2956
  11.000   1.5426   0.02292   0.01704  -0.0950  0.1561  1.0001  -3.5990   0.0000   0.0000   0.0000   0.2937
  11.250   1.5513   0.02421   0.01828  -0.0933  0.1430  1.0001  -3.7069   0.0000   0.0000   0.0000   0.2918
  11.500   1.5587   0.02561   0.01963  -0.0916  0.1321  1.0001  -3.8116   0.0000   0.0000   0.0000   0.2899
  11.750   1.5668   0.02697   0.02097  -0.0900  0.1223  1.0001  -3.9196   0.0000   0.0000   0.0000   0.2881
  12.000   1.5740   0.02841   0.02238  -0.0883  0.1123  1.0001  -4.0253   0.0000   0.0000   0.0000   0.2863
  12.250   1.5807   0.02992   0.02385  -0.0867  0.1020  1.0001  -4.1303   0.0000   0.0000   0.0000   0.2845
  12.500   1.5860   0.03154   0.02544  -0.0850  0.0919  1.0001  -4.2314   0.0000   0.0000   0.0000   0.2827
  12.750   1.5916   0.03319   0.02706  -0.0834  0.0838  1.0001  -4.3337   0.0000   0.0000   0.0000   0.2810
  13.000   1.5976   0.03484   0.02870  -0.0819  0.0771  1.0001  -4.4383   0.0000   0.0000   0.0000   0.2794
  13.250   1.6039   0.03652   0.03038  -0.0805  0.0713  1.0001  -4.5443   0.0000   0.0000   0.0000   0.2778
  13.500   1.6101   0.03825   0.03211  -0.0792  0.0661  1.0001  -4.6553   0.0000   0.0000   0.0000   0.2763
  13.750   1.6158   0.04003   0.03390  -0.0779  0.0614  1.0001  -4.7677   0.0000   0.0000   0.0000   0.2748
  14.250   1.6275   0.04370   0.03761  -0.0756  0.0533  1.0001  -4.9953   0.0000   0.0000   0.0000   0.2719
  14.500   1.6332   0.04560   0.03954  -0.0746  0.0497  1.0001  -5.1095   0.0000   0.0000   0.0000   0.2706
  14.750   1.6379   0.04764   0.04159  -0.0735  0.0464  1.0001  -5.2201   0.0000   0.0000   0.0000   0.2692
  15.000   1.6420   0.04973   0.04371  -0.0725  0.0431  1.0001  -5.3293   0.0000   0.0000   0.0000   0.2680
  15.250   1.6465   0.05185   0.04586  -0.0716  0.0402  1.0001  -5.4396   0.0000   0.0000   0.0000   0.2667
  15.500   1.6494   0.05416   0.04821  -0.0707  0.0375  1.0001  -5.5437   0.0000   0.0000   0.0000   0.2655
  15.750   1.6517   0.05657   0.05065  -0.0698  0.0348  1.0001  -5.6524   0.0000   0.0000   0.0000   0.2644
  16.000   1.6543   0.05899   0.05312  -0.0691  0.0324  1.0001  -5.7706   0.0000   0.0000   0.0000   0.2633
  16.250   1.6537   0.06180   0.05595  -0.0683  0.0302  1.0001  -5.8742   0.0000   0.0000   0.0000   0.2622
  16.500   1.6561   0.06430   0.05851  -0.0677  0.0283  1.0001  -5.9920   0.0000   0.0000   0.0000   0.2612
  16.750   1.6540   0.06735   0.06161  -0.0671  0.0267  1.0001  -6.0880   0.0000   0.0000   0.0000   0.2602
  17.000   1.6555   0.07006   0.06439  -0.0666  0.0253  1.0001  -6.2013   0.0000   0.0000   0.0000   0.2593
  17.250   1.6544   0.07311   0.06749  -0.0662  0.0242  1.0001  -6.3025   0.0000   0.0000   0.0000   0.2585
  17.750   1.6499   0.07962   0.07414  -0.0657  0.0224  1.0001  -6.5054   0.0000   0.0000   0.0000   0.2571
  18.000   1.6483   0.08283   0.07743  -0.0656  0.0217  1.0001  -6.6104   0.0000   0.0000   0.0000   0.2564
  18.250   1.6450   0.08630   0.08098  -0.0656  0.0210  1.0001  -6.7068   0.0000   0.0000   0.0000   0.2558
  18.500   1.6395   0.09013   0.08488  -0.0657  0.0204  1.0001  -6.7899   0.0000   0.0000   0.0000   0.2554
  18.750   1.6310   0.09443   0.08926  -0.0660  0.0199  1.0001  -6.8534   0.0000   0.0000   0.0000   0.2551
  19.000   1.6290   0.09789   0.09281  -0.0663  0.0195  1.0001  -6.9547   0.0000   0.0000   0.0000   0.2547
  19.250   1.6255   0.10158   0.09659  -0.0668  0.0191  1.0001  -7.0465   0.0000   0.0000   0.0000   0.2544
  19.500   1.6207   0.10544   0.10054  -0.0673  0.0187  1.0001  -7.1302   0.0000   0.0000   0.0000   0.2543
  19.750   1.6150   0.10949   0.10467  -0.0681  0.0183  1.0001  -7.2075   0.0000   0.0000   0.0000   0.2542
  20.000   1.6084   0.11374   0.10901  -0.0690  0.0180  1.0001  -7.2775   0.0000   0.0000   0.0000   0.2542


