xflr5 v6.61

 Calculated polar for: QX0026 root

 1 1 Reynolds number fixed          Mach number fixed         

 xtrf =   1.000 (top)        1.000 (bottom)
 Mach =   0.000     Re =     0.160 e 6     Ncrit =   9.000

  alpha     CL        CD       CDp       Cm    Top Xtr Bot Xtr   Cpmin    Chinge    XCp    
 ------- -------- --------- --------- -------- ------- ------- -------- --------- ---------
  -9.750  -0.1245   0.09419   0.09011  -0.0985  0.9351  0.0870  -1.6219   0.0000   0.0000   0.0000  -0.5991
  -9.500  -0.1154   0.09157   0.08747  -0.0992  0.9296  0.0897  -1.5917   0.0000   0.0000   0.0000  -0.6705
  -9.000  -0.1092   0.08529   0.08119  -0.1025  0.9178  0.0954  -1.6135   0.0000   0.0000   0.0000  -0.7498
  -8.000  -0.2092   0.04873   0.04382  -0.1365  0.8857  0.0721  -2.8314   0.0000   0.0000   0.0000  -0.4326
  -7.750  -0.1894   0.04744   0.04263  -0.1358  0.8814  0.0731  -2.6871   0.0000   0.0000   0.0000  -0.4991
  -7.500  -0.2007   0.03889   0.03323  -0.1367  0.8750  0.0636  -2.9683   0.0000   0.0000   0.0000  -0.4617
  -7.250  -0.1888   0.03490   0.02865  -0.1367  0.8713  0.0627  -2.9990   0.0000   0.0000   0.0000  -0.5059
  -7.000  -0.1757   0.03274   0.02603  -0.1357  0.8659  0.0639  -2.9726   0.0000   0.0000   0.0000  -0.5561
  -6.750  -0.1547   0.03039   0.02301  -0.1354  0.8628  0.0654  -2.9342   0.0000   0.0000   0.0000  -0.6625
  -6.500  -0.1364   0.02915   0.02163  -0.1346  0.8577  0.0667  -2.8399   0.0000   0.0000   0.0000  -0.7768
  -6.250  -0.1103   0.02799   0.02036  -0.1345  0.8548  0.0685  -2.7123   0.0000   0.0000   0.0000  -1.0181
  -6.000  -0.0895   0.02711   0.01918  -0.1337  0.8501  0.0710  -2.6243   0.0000   0.0000   0.0000  -1.3005
  -5.750  -0.0641   0.02619   0.01816  -0.1335  0.8468  0.0741  -2.5100   0.0000   0.0000   0.0000  -1.9109
  -5.500  -0.0387   0.02547   0.01726  -0.1332  0.8434  0.0775  -2.4020   0.0000   0.0000   0.0000  -3.3164
  -5.250  -0.0159   0.02481   0.01656  -0.1326  0.8388  0.0805  -2.2957   0.0000   0.0000   0.0000  -8.3576
  -5.000   0.0133   0.02411   0.01571  -0.1327  0.8365  0.0859  -2.1788   0.0000   0.0000   0.0000  10.5497
  -4.750   0.0331   0.02390   0.01556  -0.1317  0.8310  0.0906  -2.0811   0.0000   0.0000   0.0000   4.3568
  -4.500   0.0610   0.02328   0.01494  -0.1317  0.8282  0.0968  -1.9701   0.0000   0.0000   0.0000   2.4715
  -4.250   0.0832   0.02306   0.01474  -0.1310  0.8237  0.1042  -1.8695   0.0000   0.0000   0.0000   1.8687
  -4.000   0.1090   0.02269   0.01437  -0.1308  0.8200  0.1141  -1.7632   0.0000   0.0000   0.0000   1.4820
  -3.750   0.1387   0.02211   0.01387  -0.1310  0.8179  0.1284  -1.6471   0.0000   0.0000   0.0000   1.2183
  -3.500   0.1570   0.02216   0.01401  -0.1300  0.8119  0.1445  -1.5654   0.0000   0.0000   0.0000   1.0974
  -3.250   0.1859   0.02165   0.01363  -0.1302  0.8093  0.1732  -1.4607   0.0000   0.0000   0.0000   0.9657
  -3.000   0.2063   0.02166   0.01379  -0.1294  0.8040  0.2074  -1.3711   0.0000   0.0000   0.0000   0.8902
  -2.750   0.2335   0.02127   0.01365  -0.1296  0.8008  0.2556  -1.2653   0.0000   0.0000   0.0000   0.8152
  -2.500   0.2639   0.02078   0.01342  -0.1300  0.7988  0.3243  -1.1522   0.0000   0.0000   0.0000   0.7509
  -2.250   0.2813   0.02106   0.01396  -0.1289  0.7922  0.3893  -1.0710   0.0000   0.0000   0.0000   0.7152
  -2.000   0.3107   0.02067   0.01384  -0.1289  0.7899  0.4718  -0.9692   0.0000   0.0000   0.0000   0.6707
  -1.750   0.3288   0.02097   0.01440  -0.1276  0.7837  0.5406  -0.8897   0.0000   0.0000   0.0000   0.6429
  -1.500   0.3560   0.02074   0.01439  -0.1270  0.7809  0.6156  -0.7959   0.0000   0.0000   0.0000   0.6105
  -1.250   0.3849   0.02043   0.01424  -0.1263  0.7790  0.6864  -0.7369   0.0000   0.0000   0.0000   0.5811
  -1.000   0.3987   0.02098   0.01494  -0.1241  0.7718  0.7396  -0.7456   0.0000   0.0000   0.0000   0.5634
  -0.750   0.4244   0.02068   0.01475  -0.1226  0.7697  0.7972  -0.7645   0.0000   0.0000   0.0000   0.5403
  -0.500   0.4349   0.02122   0.01543  -0.1193  0.7626  0.8536  -0.7719   0.0000   0.0000   0.0000   0.5253
  -0.250   0.4671   0.02090   0.01516  -0.1190  0.7605  0.9327  -0.7942   0.0000   0.0000   0.0000   0.5049
   0.000   0.5196   0.02055   0.01468  -0.1234  0.7592  1.0001  -0.8273   0.0000   0.0000   0.0000   0.4872
   0.500   0.5716   0.02095   0.01486  -0.1235  0.7495  1.0001  -0.8682   0.0000   0.0000   0.0000   0.4647
   0.750   0.5896   0.02156   0.01540  -0.1225  0.7419  1.0001  -0.8831   0.0000   0.0000   0.0000   0.4559
   1.000   0.6247   0.02126   0.01499  -0.1233  0.7398  1.0001  -0.9111   0.0000   0.0000   0.0000   0.4452
   1.250   0.6427   0.02191   0.01560  -0.1223  0.7325  1.0001  -0.9260   0.0000   0.0000   0.0000   0.4376
   1.500   0.6766   0.02166   0.01527  -0.1230  0.7301  1.0001  -0.9532   0.0000   0.0000   0.0000   0.4287
   2.000   0.7289   0.02203   0.01553  -0.1226  0.7204  1.0001  -1.0028   0.0000   0.0000   0.0000   0.4144
   2.250   0.7614   0.02179   0.01523  -0.1230  0.7172  1.0001  -1.0339   0.0000   0.0000   0.0000   0.4074
   2.750   0.8227   0.02139   0.01474  -0.1234  0.7086  1.0001  -1.0944   0.0000   0.0000   0.0000   0.3951
   3.000   0.8410   0.02192   0.01529  -0.1221  0.7007  1.0001  -1.1151   0.0000   0.0000   0.0000   0.3900
   3.250   0.8771   0.02146   0.01478  -0.1230  0.6986  1.0001  -1.1549   0.0000   0.0000   0.0000   0.3847
   3.500   0.8962   0.02195   0.01529  -0.1219  0.6910  1.0001  -1.1806   0.0000   0.0000   0.0000   0.3801
   3.750   0.9331   0.02137   0.01467  -0.1228  0.6884  1.0001  -1.2223   0.0000   0.0000   0.0000   0.3754
   4.000   0.9550   0.02157   0.01489  -0.1219  0.6808  1.0001  -1.2523   0.0000   0.0000   0.0000   0.3710
   4.250   0.9929   0.02087   0.01415  -0.1229  0.6778  1.0001  -1.2967   0.0000   0.0000   0.0000   0.3668
   4.500   1.0149   0.02105   0.01436  -0.1219  0.6700  1.0001  -1.3287   0.0000   0.0000   0.0000   0.3628
   4.750   1.0521   0.02045   0.01374  -0.1229  0.6669  1.0001  -1.3811   0.0000   0.0000   0.0000   0.3592
   5.000   1.0738   0.02062   0.01395  -0.1219  0.6588  1.0001  -1.4192   0.0000   0.0000   0.0000   0.3556
   5.500   1.1353   0.01995   0.01328  -0.1221  0.6466  1.0001  -1.5164   0.0000   0.0000   0.0000   0.3489
   5.750   1.1594   0.01992   0.01329  -0.1214  0.6383  1.0001  -1.5587   0.0000   0.0000   0.0000   0.3456
   6.000   1.1882   0.01970   0.01309  -0.1213  0.6312  1.0001  -1.6073   0.0000   0.0000   0.0000   0.3427
   6.250   1.2197   0.01938   0.01277  -0.1215  0.6246  1.0001  -1.6782   0.0000   0.0000   0.0000   0.3399
   6.500   1.2432   0.01936   0.01279  -0.1207  0.6151  1.0001  -1.7409   0.0000   0.0000   0.0000   0.3369
   6.750   1.2684   0.01920   0.01266  -0.1199  0.6051  1.0001  -1.8091   0.0000   0.0000   0.0000   0.3340
   7.000   1.2936   0.01904   0.01253  -0.1192  0.5945  1.0001  -1.8855   0.0000   0.0000   0.0000   0.3312
   7.250   1.3183   0.01896   0.01246  -0.1185  0.5835  1.0001  -1.9686   0.0000   0.0000   0.0000   0.3286
   7.500   1.3423   0.01897   0.01248  -0.1176  0.5722  1.0001  -2.0539   0.0000   0.0000   0.0000   0.3260
   7.750   1.3659   0.01901   0.01253  -0.1168  0.5601  1.0001  -2.1412   0.0000   0.0000   0.0000   0.3234
   8.000   1.3864   0.01916   0.01270  -0.1154  0.5468  1.0001  -2.2285   0.0000   0.0000   0.0000   0.3208
   8.250   1.4026   0.01940   0.01297  -0.1134  0.5309  1.0001  -2.3346   0.0000   0.0000   0.0000   0.3180
   8.500   1.4214   0.01957   0.01309  -0.1118  0.5145  1.0001  -2.4494   0.0000   0.0000   0.0000   0.3153
   8.750   1.4339   0.01996   0.01348  -0.1092  0.4964  1.0001  -2.5497   0.0000   0.0000   0.0000   0.3125
   9.000   1.4446   0.02042   0.01390  -0.1064  0.4787  1.0001  -2.6467   0.0000   0.0000   0.0000   0.3095
   9.250   1.4561   0.02095   0.01436  -0.1039  0.4612  1.0001  -2.7467   0.0000   0.0000   0.0000   0.3067
   9.500   1.4636   0.02169   0.01508  -0.1009  0.4431  1.0001  -2.8369   0.0000   0.0000   0.0000   0.3039
   9.750   1.4719   0.02250   0.01584  -0.0982  0.4253  1.0001  -2.9300   0.0000   0.0000   0.0000   0.3013
  10.000   1.4787   0.02343   0.01672  -0.0955  0.4075  1.0001  -3.0229   0.0000   0.0000   0.0000   0.2987
  10.250   1.4836   0.02452   0.01778  -0.0927  0.3893  1.0001  -3.1131   0.0000   0.0000   0.0000   0.2961
  10.500   1.4885   0.02569   0.01889  -0.0901  0.3719  1.0001  -3.2042   0.0000   0.0000   0.0000   0.2937
  10.750   1.4925   0.02698   0.02013  -0.0876  0.3547  1.0001  -3.2932   0.0000   0.0000   0.0000   0.2914
  11.000   1.4957   0.02840   0.02154  -0.0851  0.3375  1.0001  -3.3795   0.0000   0.0000   0.0000   0.2891
  11.250   1.4985   0.02988   0.02297  -0.0827  0.3213  1.0001  -3.4657   0.0000   0.0000   0.0000   0.2869
  11.500   1.5006   0.03149   0.02456  -0.0804  0.3050  1.0001  -3.5495   0.0000   0.0000   0.0000   0.2848
  11.750   1.5025   0.03317   0.02620  -0.0782  0.2896  1.0001  -3.6330   0.0000   0.0000   0.0000   0.2828
  12.000   1.5035   0.03496   0.02799  -0.0760  0.2740  1.0001  -3.7138   0.0000   0.0000   0.0000   0.2808
  12.250   1.5041   0.03685   0.02987  -0.0740  0.2588  1.0001  -3.7932   0.0000   0.0000   0.0000   0.2789
  12.500   1.5037   0.03886   0.03184  -0.0720  0.2444  1.0001  -3.8695   0.0000   0.0000   0.0000   0.2771
  12.750   1.5030   0.04098   0.03394  -0.0701  0.2300  1.0001  -3.9444   0.0000   0.0000   0.0000   0.2753
  13.000   1.5013   0.04325   0.03618  -0.0683  0.2159  1.0001  -4.0163   0.0000   0.0000   0.0000   0.2736
  13.250   1.4998   0.04564   0.03858  -0.0667  0.2011  1.0001  -4.0875   0.0000   0.0000   0.0000   0.2721
  13.500   1.4968   0.04820   0.04109  -0.0651  0.1880  1.0001  -4.1541   0.0000   0.0000   0.0000   0.2706
  13.750   1.4941   0.05087   0.04375  -0.0637  0.1747  1.0001  -4.2202   0.0000   0.0000   0.0000   0.2692
  14.000   1.4911   0.05365   0.04650  -0.0625  0.1623  1.0001  -4.2854   0.0000   0.0000   0.0000   0.2679
  14.250   1.4886   0.05649   0.04935  -0.0614  0.1503  1.0001  -4.3557   0.0000   0.0000   0.0000   0.2667
  14.500   1.4850   0.05946   0.05228  -0.0603  0.1404  1.0001  -4.4222   0.0000   0.0000   0.0000   0.2655
  14.750   1.4825   0.06242   0.05524  -0.0594  0.1305  1.0001  -4.4902   0.0000   0.0000   0.0000   0.2644
  15.000   1.4800   0.06542   0.05825  -0.0586  0.1217  1.0001  -4.5578   0.0000   0.0000   0.0000   0.2633
  15.250   1.4778   0.06846   0.06129  -0.0578  0.1139  1.0001  -4.6253   0.0000   0.0000   0.0000   0.2624
  15.500   1.4758   0.07151   0.06437  -0.0572  0.1067  1.0001  -4.6927   0.0000   0.0000   0.0000   0.2614
  15.750   1.4739   0.07460   0.06748  -0.0567  0.1003  1.0001  -4.7594   0.0000   0.0000   0.0000   0.2606
  16.000   1.4722   0.07771   0.07061  -0.0563  0.0944  1.0001  -4.8257   0.0000   0.0000   0.0000   0.2597
  16.250   1.4707   0.08081   0.07372  -0.0559  0.0891  1.0001  -4.8939   0.0000   0.0000   0.0000   0.2590
  16.500   1.4698   0.08381   0.07670  -0.0556  0.0843  1.0001  -4.9700   0.0000   0.0000   0.0000   0.2582
  16.750   1.4695   0.08678   0.07969  -0.0553  0.0796  1.0001  -5.0464   0.0000   0.0000   0.0000   0.2574
  17.000   1.4692   0.08981   0.08280  -0.0551  0.0753  1.0001  -5.1200   0.0000   0.0000   0.0000   0.2567
  17.250   1.4703   0.09256   0.08558  -0.0547  0.0715  1.0001  -5.2071   0.0000   0.0000   0.0000   0.2559
  17.500   1.4737   0.09492   0.08789  -0.0544  0.0679  1.0001  -5.3084   0.0000   0.0000   0.0000   0.2550
  17.750   1.4729   0.09817   0.09129  -0.0545  0.0646  1.0001  -5.3791   0.0000   0.0000   0.0000   0.2545
  18.000   1.4784   0.10022   0.09328  -0.0541  0.0616  1.0001  -5.4902   0.0000   0.0000   0.0000   0.2535
  18.250   1.4774   0.10354   0.09677  -0.0544  0.0589  1.0001  -5.5595   0.0000   0.0000   0.0000   0.2531
  18.500   1.4852   0.10524   0.09840  -0.0539  0.0564  1.0001  -5.6818   0.0000   0.0000   0.0000   0.2520
  18.750   1.4839   0.10866   0.10202  -0.0544  0.0543  1.0001  -5.7527   0.0000   0.0000   0.0000   0.2517
  19.000   1.4970   0.10946   0.10271  -0.0536  0.0522  1.0001  -5.9169   0.0000   0.0000   0.0000   0.2503
  19.250   1.4959   0.11280   0.10626  -0.0540  0.0507  1.0001  -5.9842   0.0000   0.0000   0.0000   0.2500
  19.500   1.4957   0.11603   0.10966  -0.0546  0.0492  1.0001  -6.0598   0.0000   0.0000   0.0000   0.2497
  19.750   1.5053   0.11752   0.11112  -0.0544  0.0477  1.0001  -6.2043   0.0000   0.0000   0.0000   0.2488
  20.000   1.5066   0.12049   0.11422  -0.0549  0.0465  1.0001  -6.2878   0.0000   0.0000   0.0000   0.2484


