xflr5 v6.61

 Calculated polar for: QX0026 root

 1 1 Reynolds number fixed          Mach number fixed         

 xtrf =   1.000 (top)        1.000 (bottom)
 Mach =   0.000     Re =     0.960 e 6     Ncrit =   9.000

  alpha     CL        CD       CDp       Cm    Top Xtr Bot Xtr   Cpmin    Chinge    XCp    
 ------- -------- --------- --------- -------- ------- ------- -------- --------- ---------
 -10.000  -0.5324   0.01674   0.01136  -0.1205  0.7833  0.0207  -6.3952   0.0000   0.0000   0.0000   0.0054
  -9.750  -0.5063   0.01627   0.01078  -0.1206  0.7807  0.0212  -6.1532   0.0000   0.0000   0.0000  -0.0066
  -9.500  -0.4796   0.01588   0.01030  -0.1207  0.7781  0.0215  -5.9099   0.0000   0.0000   0.0000  -0.0202
  -9.250  -0.4554   0.01494   0.00929  -0.1206  0.7753  0.0222  -5.6987   0.0000   0.0000   0.0000  -0.0337
  -9.000  -0.4288   0.01451   0.00883  -0.1207  0.7725  0.0228  -5.4577   0.0000   0.0000   0.0000  -0.0507
  -8.750  -0.4015   0.01420   0.00847  -0.1209  0.7700  0.0234  -5.2151   0.0000   0.0000   0.0000  -0.0706
  -8.500  -0.3740   0.01388   0.00810  -0.1210  0.7675  0.0241  -4.9798   0.0000   0.0000   0.0000  -0.0936
  -8.250  -0.3465   0.01352   0.00769  -0.1211  0.7648  0.0247  -4.7516   0.0000   0.0000   0.0000  -0.1203
  -8.000  -0.3187   0.01323   0.00733  -0.1212  0.7622  0.0252  -4.5262   0.0000   0.0000   0.0000  -0.1520
  -7.750  -0.2926   0.01260   0.00664  -0.1213  0.7599  0.0261  -4.3356   0.0000   0.0000   0.0000  -0.1870
  -7.500  -0.2648   0.01228   0.00631  -0.1215  0.7574  0.0269  -4.1282   0.0000   0.0000   0.0000  -0.2324
  -7.250  -0.2366   0.01203   0.00603  -0.1216  0.7546  0.0279  -3.9225   0.0000   0.0000   0.0000  -0.2894
  -7.000  -0.2083   0.01179   0.00574  -0.1218  0.7522  0.0289  -3.7225   0.0000   0.0000   0.0000  -0.3621
  -6.750  -0.1807   0.01142   0.00530  -0.1219  0.7499  0.0299  -3.5380   0.0000   0.0000   0.0000  -0.4549
  -6.500  -0.1527   0.01111   0.00498  -0.1221  0.7474  0.0311  -3.3602   0.0000   0.0000   0.0000  -0.5838
  -6.250  -0.1242   0.01088   0.00474  -0.1223  0.7446  0.0324  -3.1835   0.0000   0.0000   0.0000  -0.7745
  -6.000  -0.0955   0.01070   0.00451  -0.1225  0.7420  0.0336  -3.0099   0.0000   0.0000   0.0000  -1.0814
  -5.750  -0.0675   0.01036   0.00415  -0.1227  0.7396  0.0355  -2.8438   0.0000   0.0000   0.0000  -1.6322
  -5.500  -0.0388   0.01019   0.00396  -0.1229  0.7370  0.0374  -2.6815   0.0000   0.0000   0.0000  -3.0254
  -5.250  -0.0103   0.00994   0.00370  -0.1231  0.7342  0.0396  -2.5321   0.0000   0.0000   0.0000  -12.1274
  -5.000   0.0185   0.00975   0.00350  -0.1233  0.7317  0.0419  -2.3816   0.0000   0.0000   0.0000   7.1270
  -4.750   0.0472   0.00956   0.00328  -0.1235  0.7294  0.0446  -2.2357   0.0000   0.0000   0.0000   2.9421
  -4.500   0.0761   0.00940   0.00312  -0.1238  0.7269  0.0477  -2.0903   0.0000   0.0000   0.0000   1.9208
  -4.250   0.1049   0.00920   0.00295  -0.1240  0.7242  0.0519  -1.9482   0.0000   0.0000   0.0000   1.4620
  -4.000   0.1338   0.00903   0.00279  -0.1243  0.7216  0.0573  -1.8087   0.0000   0.0000   0.0000   1.2005
  -3.750   0.1626   0.00888   0.00263  -0.1245  0.7193  0.0648  -1.6796   0.0000   0.0000   0.0000   1.0318
  -3.500   0.1915   0.00870   0.00251  -0.1248  0.7167  0.0764  -1.5558   0.0000   0.0000   0.0000   0.9144
  -3.250   0.2204   0.00852   0.00240  -0.1251  0.7138  0.0932  -1.4338   0.0000   0.0000   0.0000   0.8276
  -3.000   0.2492   0.00835   0.00229  -0.1253  0.7111  0.1126  -1.3140   0.0000   0.0000   0.0000   0.7610
  -2.750   0.2781   0.00823   0.00220  -0.1256  0.7084  0.1333  -1.1964   0.0000   0.0000   0.0000   0.7081
  -2.500   0.3070   0.00807   0.00214  -0.1259  0.7053  0.1552  -1.0816   0.0000   0.0000   0.0000   0.6652
  -2.250   0.3359   0.00792   0.00207  -0.1262  0.7020  0.1811  -0.9764   0.0000   0.0000   0.0000   0.6297
  -2.000   0.3648   0.00778   0.00200  -0.1265  0.6993  0.2112  -0.8752   0.0000   0.0000   0.0000   0.5998
  -1.750   0.3936   0.00763   0.00196  -0.1268  0.6966  0.2483  -0.7772   0.0000   0.0000   0.0000   0.5743
  -1.500   0.4224   0.00745   0.00192  -0.1271  0.6932  0.2951  -0.7938   0.0000   0.0000   0.0000   0.5524
  -1.250   0.4511   0.00730   0.00189  -0.1274  0.6899  0.3412  -0.8104   0.0000   0.0000   0.0000   0.5332
  -1.000   0.4799   0.00718   0.00187  -0.1276  0.6865  0.3853  -0.8271   0.0000   0.0000   0.0000   0.5163
  -0.750   0.5085   0.00702   0.00187  -0.1279  0.6825  0.4366  -0.8446   0.0000   0.0000   0.0000   0.5013
  -0.500   0.5371   0.00688   0.00186  -0.1282  0.6788  0.4887  -0.8646   0.0000   0.0000   0.0000   0.4879
  -0.250   0.5657   0.00678   0.00188  -0.1284  0.6754  0.5405  -0.8846   0.0000   0.0000   0.0000   0.4758
   0.000   0.5943   0.00666   0.00191  -0.1286  0.6714  0.5899  -0.9046   0.0000   0.0000   0.0000   0.4648
   0.250   0.6227   0.00658   0.00193  -0.1287  0.6676  0.6356  -0.9247   0.0000   0.0000   0.0000   0.4547
   0.500   0.6512   0.00653   0.00197  -0.1289  0.6636  0.6770  -0.9469   0.0000   0.0000   0.0000   0.4455
   0.750   0.6796   0.00648   0.00200  -0.1290  0.6593  0.7120  -0.9705   0.0000   0.0000   0.0000   0.4371
   1.000   0.7078   0.00646   0.00203  -0.1290  0.6552  0.7427  -0.9941   0.0000   0.0000   0.0000   0.4292
   1.250   0.7359   0.00641   0.00207  -0.1291  0.6503  0.7725  -1.0177   0.0000   0.0000   0.0000   0.4220
   1.500   0.7633   0.00637   0.00211  -0.1290  0.6460  0.8072  -1.0409   0.0000   0.0000   0.0000   0.4152
   1.750   0.7898   0.00629   0.00217  -0.1286  0.6412  0.8543  -1.0656   0.0000   0.0000   0.0000   0.4087
   2.000   0.8132   0.00619   0.00222  -0.1274  0.6362  0.9171  -1.0909   0.0000   0.0000   0.0000   0.4023
   2.250   0.8498   0.00613   0.00222  -0.1292  0.6304  0.9971  -1.1245   0.0000   0.0000   0.0000   0.3973
   2.500   0.8785   0.00620   0.00225  -0.1295  0.6249  1.0001  -1.1540   0.0000   0.0000   0.0000   0.3923
   2.750   0.9069   0.00626   0.00230  -0.1297  0.6191  1.0001  -1.1833   0.0000   0.0000   0.0000   0.3876
   3.000   0.9348   0.00635   0.00235  -0.1298  0.6134  1.0001  -1.2135   0.0000   0.0000   0.0000   0.3831
   3.250   0.9630   0.00642   0.00241  -0.1299  0.6070  1.0001  -1.2476   0.0000   0.0000   0.0000   0.3789
   3.500   0.9907   0.00651   0.00248  -0.1300  0.6006  1.0001  -1.2822   0.0000   0.0000   0.0000   0.3749
   3.750   1.0182   0.00662   0.00255  -0.1300  0.5930  1.0001  -1.3173   0.0000   0.0000   0.0000   0.3710
   4.000   1.0457   0.00672   0.00264  -0.1301  0.5849  1.0001  -1.3526   0.0000   0.0000   0.0000   0.3674
   4.250   1.0728   0.00685   0.00274  -0.1300  0.5766  1.0001  -1.3877   0.0000   0.0000   0.0000   0.3639
   4.500   1.0996   0.00699   0.00285  -0.1299  0.5673  1.0001  -1.4307   0.0000   0.0000   0.0000   0.3605
   4.750   1.1262   0.00714   0.00297  -0.1298  0.5573  1.0001  -1.4747   0.0000   0.0000   0.0000   0.3573
   5.000   1.1525   0.00729   0.00309  -0.1297  0.5467  1.0001  -1.5189   0.0000   0.0000   0.0000   0.3542
   5.250   1.1786   0.00746   0.00323  -0.1295  0.5353  1.0001  -1.5631   0.0000   0.0000   0.0000   0.3512
   5.500   1.2043   0.00765   0.00339  -0.1292  0.5229  1.0001  -1.6071   0.0000   0.0000   0.0000   0.3483
   5.750   1.2293   0.00787   0.00356  -0.1289  0.5096  1.0001  -1.6511   0.0000   0.0000   0.0000   0.3455
   6.000   1.2536   0.00812   0.00377  -0.1284  0.4955  1.0001  -1.7130   0.0000   0.0000   0.0000   0.3427
   6.250   1.2769   0.00842   0.00400  -0.1277  0.4777  1.0001  -1.7756   0.0000   0.0000   0.0000   0.3400
   6.500   1.2981   0.00881   0.00428  -0.1267  0.4540  1.0001  -1.8385   0.0000   0.0000   0.0000   0.3372
   6.750   1.3184   0.00924   0.00461  -0.1255  0.4312  1.0001  -1.9097   0.0000   0.0000   0.0000   0.3344
   7.000   1.3391   0.00964   0.00492  -0.1245  0.4123  1.0001  -1.9886   0.0000   0.0000   0.0000   0.3318
   7.250   1.3590   0.01006   0.00526  -0.1233  0.3938  1.0001  -2.0684   0.0000   0.0000   0.0000   0.3292
   7.500   1.3772   0.01053   0.00564  -0.1218  0.3746  1.0001  -2.1462   0.0000   0.0000   0.0000   0.3265
   7.750   1.3935   0.01103   0.00606  -0.1200  0.3549  1.0001  -2.2270   0.0000   0.0000   0.0000   0.3238
   8.000   1.4079   0.01154   0.00649  -0.1179  0.3358  1.0001  -2.3294   0.0000   0.0000   0.0000   0.3210
   8.250   1.4223   0.01210   0.00698  -0.1158  0.3179  1.0001  -2.4330   0.0000   0.0000   0.0000   0.3184
   8.500   1.4354   0.01276   0.00755  -0.1137  0.3004  1.0001  -2.5346   0.0000   0.0000   0.0000   0.3157
   8.750   1.4484   0.01347   0.00819  -0.1117  0.2831  1.0001  -2.6373   0.0000   0.0000   0.0000   0.3132
   9.000   1.4612   0.01422   0.00887  -0.1098  0.2646  1.0001  -2.7408   0.0000   0.0000   0.0000   0.3108
   9.250   1.4729   0.01508   0.00965  -0.1078  0.2469  1.0001  -2.8480   0.0000   0.0000   0.0000   0.3085
   9.500   1.4839   0.01603   0.01052  -0.1059  0.2311  1.0001  -2.9552   0.0000   0.0000   0.0000   0.3062
   9.750   1.4952   0.01700   0.01143  -0.1040  0.2158  1.0001  -3.0645   0.0000   0.0000   0.0000   0.3040
  10.000   1.5069   0.01798   0.01235  -0.1024  0.1998  1.0001  -3.1763   0.0000   0.0000   0.0000   0.3019
  10.250   1.5170   0.01909   0.01339  -0.1006  0.1855  1.0001  -3.2844   0.0000   0.0000   0.0000   0.2998
  10.500   1.5268   0.02025   0.01449  -0.0988  0.1731  1.0001  -3.3927   0.0000   0.0000   0.0000   0.2978
  10.750   1.5377   0.02136   0.01556  -0.0973  0.1608  1.0001  -3.5056   0.0000   0.0000   0.0000   0.2958
  11.000   1.5468   0.02260   0.01675  -0.0956  0.1474  1.0001  -3.6140   0.0000   0.0000   0.0000   0.2939
  11.250   1.5554   0.02389   0.01798  -0.0939  0.1355  1.0001  -3.7221   0.0000   0.0000   0.0000   0.2920
  11.500   1.5633   0.02525   0.01930  -0.0922  0.1256  1.0001  -3.8286   0.0000   0.0000   0.0000   0.2901
  11.750   1.5720   0.02657   0.02060  -0.0906  0.1159  1.0001  -3.9386   0.0000   0.0000   0.0000   0.2883
  12.000   1.5792   0.02800   0.02200  -0.0889  0.1054  1.0001  -4.0448   0.0000   0.0000   0.0000   0.2865
  12.250   1.5856   0.02952   0.02347  -0.0872  0.0950  1.0001  -4.1491   0.0000   0.0000   0.0000   0.2847
  12.500   1.5912   0.03112   0.02504  -0.0855  0.0860  1.0001  -4.2514   0.0000   0.0000   0.0000   0.2829
  12.750   1.5970   0.03274   0.02664  -0.0839  0.0789  1.0001  -4.3549   0.0000   0.0000   0.0000   0.2812
  13.000   1.6036   0.03434   0.02824  -0.0825  0.0729  1.0001  -4.4618   0.0000   0.0000   0.0000   0.2796
  13.250   1.6102   0.03598   0.02988  -0.0811  0.0675  1.0001  -4.5692   0.0000   0.0000   0.0000   0.2780
  13.500   1.6169   0.03765   0.03155  -0.0798  0.0626  1.0001  -4.6836   0.0000   0.0000   0.0000   0.2765
  13.750   1.6237   0.03934   0.03325  -0.0786  0.0582  1.0001  -4.8005   0.0000   0.0000   0.0000   0.2750
  14.000   1.6302   0.04108   0.03502  -0.0774  0.0542  1.0001  -4.9168   0.0000   0.0000   0.0000   0.2735
  14.250   1.6360   0.04291   0.03687  -0.0763  0.0506  1.0001  -5.0317   0.0000   0.0000   0.0000   0.2721
  14.500   1.6409   0.04488   0.03884  -0.0751  0.0471  1.0001  -5.1433   0.0000   0.0000   0.0000   0.2707
  14.750   1.6470   0.04677   0.04077  -0.0741  0.0438  1.0001  -5.2600   0.0000   0.0000   0.0000   0.2694
  15.000   1.6519   0.04879   0.04282  -0.0732  0.0409  1.0001  -5.3726   0.0000   0.0000   0.0000   0.2681
  15.250   1.6550   0.05100   0.04505  -0.0721  0.0380  1.0001  -5.4786   0.0000   0.0000   0.0000   0.2668
  15.500   1.6591   0.05317   0.04725  -0.0712  0.0353  1.0001  -5.5885   0.0000   0.0000   0.0000   0.2656
  15.750   1.6621   0.05549   0.04961  -0.0704  0.0329  1.0001  -5.7035   0.0000   0.0000   0.0000   0.2644
  16.000   1.6632   0.05805   0.05220  -0.0695  0.0305  1.0001  -5.8158   0.0000   0.0000   0.0000   0.2633
  16.250   1.6660   0.06048   0.05468  -0.0689  0.0284  1.0001  -5.9360   0.0000   0.0000   0.0000   0.2622
  16.750   1.6673   0.06588   0.06018  -0.0675  0.0252  1.0001  -6.1565   0.0000   0.0000   0.0000   0.2602
  17.000   1.6666   0.06880   0.06315  -0.0670  0.0239  1.0001  -6.2609   0.0000   0.0000   0.0000   0.2593
  17.250   1.6648   0.07190   0.06631  -0.0666  0.0228  1.0001  -6.3614   0.0000   0.0000   0.0000   0.2585
  17.500   1.6655   0.07476   0.06925  -0.0662  0.0220  1.0001  -6.4797   0.0000   0.0000   0.0000   0.2576
  17.750   1.6642   0.07789   0.07245  -0.0660  0.0212  1.0001  -6.5884   0.0000   0.0000   0.0000   0.2569
  18.000   1.6607   0.08131   0.07593  -0.0658  0.0205  1.0001  -6.6851   0.0000   0.0000   0.0000   0.2562
  18.250   1.6544   0.08513   0.07982  -0.0657  0.0199  1.0001  -6.7648   0.0000   0.0000   0.0000   0.2557
  18.500   1.6536   0.08831   0.08309  -0.0658  0.0194  1.0001  -6.8757   0.0000   0.0000   0.0000   0.2551
  18.750   1.6514   0.09171   0.08658  -0.0659  0.0189  1.0001  -6.9786   0.0000   0.0000   0.0000   0.2546
  19.000   1.6480   0.09533   0.09027  -0.0662  0.0185  1.0001  -7.0739   0.0000   0.0000   0.0000   0.2542
  19.250   1.6432   0.09916   0.09418  -0.0666  0.0181  1.0001  -7.1607   0.0000   0.0000   0.0000   0.2539
  19.500   1.6367   0.10325   0.09834  -0.0672  0.0177  1.0001  -7.2367   0.0000   0.0000   0.0000   0.2537
  19.750   1.6280   0.10767   0.10285  -0.0679  0.0174  1.0001  -7.2967   0.0000   0.0000   0.0000   0.2537
  20.000   1.6165   0.11260   0.10787  -0.0689  0.0170  1.0001  -7.3356   0.0000   0.0000   0.0000   0.2540


