xflr5 v6.61

 Calculated polar for: QX0026 root

 1 1 Reynolds number fixed          Mach number fixed         

 xtrf =   1.000 (top)        1.000 (bottom)
 Mach =   0.000     Re =     0.780 e 6     Ncrit =   9.000

  alpha     CL        CD       CDp       Cm    Top Xtr Bot Xtr   Cpmin    Chinge    XCp    
 ------- -------- --------- --------- -------- ------- ------- -------- --------- ---------
 -10.000  -0.5249   0.01840   0.01287  -0.1212  0.7936  0.0220  -6.2930   0.0000   0.0000   0.0000   0.0006
  -9.750  -0.5001   0.01774   0.01217  -0.1213  0.7908  0.0225  -6.0579   0.0000   0.0000   0.0000  -0.0111
  -9.500  -0.4742   0.01726   0.01162  -0.1213  0.7882  0.0231  -5.8185   0.0000   0.0000   0.0000  -0.0246
  -9.250  -0.4480   0.01677   0.01108  -0.1214  0.7851  0.0236  -5.5837   0.0000   0.0000   0.0000  -0.0401
  -9.000  -0.4215   0.01632   0.01054  -0.1215  0.7824  0.0243  -5.3523   0.0000   0.0000   0.0000  -0.0577
  -8.750  -0.3945   0.01594   0.01004  -0.1216  0.7799  0.0250  -5.1234   0.0000   0.0000   0.0000  -0.0780
  -8.500  -0.3689   0.01524   0.00926  -0.1216  0.7772  0.0256  -4.9140   0.0000   0.0000   0.0000  -0.1000
  -8.250  -0.3428   0.01464   0.00863  -0.1217  0.7743  0.0263  -4.6969   0.0000   0.0000   0.0000  -0.1259
  -8.000  -0.3156   0.01426   0.00821  -0.1218  0.7717  0.0271  -4.4738   0.0000   0.0000   0.0000  -0.1576
  -7.750  -0.2882   0.01390   0.00779  -0.1219  0.7695  0.0279  -4.2702   0.0000   0.0000   0.0000  -0.1956
  -7.500  -0.2605   0.01358   0.00741  -0.1220  0.7668  0.0288  -4.0707   0.0000   0.0000   0.0000  -0.2424
  -7.250  -0.2334   0.01312   0.00689  -0.1221  0.7639  0.0297  -3.8810   0.0000   0.0000   0.0000  -0.2989
  -7.000  -0.2061   0.01269   0.00645  -0.1222  0.7614  0.0308  -3.6881   0.0000   0.0000   0.0000  -0.3707
  -6.750  -0.1782   0.01241   0.00612  -0.1224  0.7593  0.0319  -3.4954   0.0000   0.0000   0.0000  -0.4674
  -6.500  -0.1500   0.01214   0.00580  -0.1225  0.7566  0.0331  -3.3223   0.0000   0.0000   0.0000  -0.6013
  -6.250  -0.1224   0.01172   0.00536  -0.1226  0.7538  0.0345  -3.1577   0.0000   0.0000   0.0000  -0.7921
  -6.000  -0.0943   0.01144   0.00506  -0.1228  0.7513  0.0361  -2.9865   0.0000   0.0000   0.0000  -1.1023
  -5.500  -0.0378   0.01092   0.00449  -0.1232  0.7461  0.0399  -2.6615   0.0000   0.0000   0.0000  -3.1231
  -5.250  -0.0092   0.01071   0.00426  -0.1234  0.7433  0.0421  -2.5119   0.0000   0.0000   0.0000  -13.5660
  -5.000   0.0192   0.01045   0.00397  -0.1236  0.7408  0.0446  -2.3675   0.0000   0.0000   0.0000   6.8787
  -4.750   0.0479   0.01028   0.00377  -0.1238  0.7386  0.0475  -2.2216   0.0000   0.0000   0.0000   2.9065
  -4.500   0.0765   0.01004   0.00356  -0.1240  0.7358  0.0511  -2.0798   0.0000   0.0000   0.0000   1.9154
  -4.250   0.1052   0.00985   0.00337  -0.1242  0.7330  0.0557  -1.9395   0.0000   0.0000   0.0000   1.4607
  -4.000   0.1340   0.00966   0.00318  -0.1245  0.7306  0.0615  -1.8018   0.0000   0.0000   0.0000   1.2006
  -3.750   0.1628   0.00949   0.00302  -0.1247  0.7283  0.0701  -1.6743   0.0000   0.0000   0.0000   1.0326
  -3.500   0.1914   0.00928   0.00288  -0.1250  0.7254  0.0835  -1.5521   0.0000   0.0000   0.0000   0.9157
  -3.250   0.2202   0.00909   0.00276  -0.1252  0.7226  0.1020  -1.4312   0.0000   0.0000   0.0000   0.8290
  -3.000   0.2490   0.00892   0.00264  -0.1255  0.7201  0.1235  -1.3119   0.0000   0.0000   0.0000   0.7621
  -2.750   0.2778   0.00877   0.00256  -0.1258  0.7175  0.1458  -1.1950   0.0000   0.0000   0.0000   0.7092
  -2.500   0.3065   0.00861   0.00249  -0.1260  0.7142  0.1706  -1.0809   0.0000   0.0000   0.0000   0.6664
  -2.250   0.3353   0.00844   0.00240  -0.1263  0.7111  0.2001  -0.9767   0.0000   0.0000   0.0000   0.6308
  -2.000   0.3641   0.00829   0.00233  -0.1266  0.7085  0.2352  -0.8757   0.0000   0.0000   0.0000   0.6008
  -1.750   0.3927   0.00809   0.00230  -0.1269  0.7053  0.2808  -0.7782   0.0000   0.0000   0.0000   0.5755
  -1.500   0.4214   0.00792   0.00227  -0.1272  0.7021  0.3301  -0.7921   0.0000   0.0000   0.0000   0.5534
  -1.250   0.4502   0.00778   0.00223  -0.1275  0.6993  0.3757  -0.8088   0.0000   0.0000   0.0000   0.5341
  -1.000   0.4788   0.00764   0.00222  -0.1277  0.6960  0.4262  -0.8254   0.0000   0.0000   0.0000   0.5171
  -0.750   0.5072   0.00747   0.00222  -0.1279  0.6920  0.4816  -0.8429   0.0000   0.0000   0.0000   0.5021
  -0.250   0.5640   0.00722   0.00223  -0.1283  0.6847  0.5868  -0.8828   0.0000   0.0000   0.0000   0.4763
   0.000   0.5923   0.00711   0.00226  -0.1284  0.6809  0.6361  -0.9027   0.0000   0.0000   0.0000   0.4652
   0.250   0.6207   0.00706   0.00228  -0.1285  0.6774  0.6790  -0.9227   0.0000   0.0000   0.0000   0.4551
   0.500   0.6488   0.00701   0.00232  -0.1285  0.6733  0.7146  -0.9447   0.0000   0.0000   0.0000   0.4458
   0.750   0.6769   0.00695   0.00235  -0.1286  0.6691  0.7471  -0.9681   0.0000   0.0000   0.0000   0.4372
   1.000   0.7047   0.00692   0.00237  -0.1285  0.6653  0.7790  -0.9915   0.0000   0.0000   0.0000   0.4293
   1.250   0.7318   0.00684   0.00242  -0.1283  0.6605  0.8152  -1.0145   0.0000   0.0000   0.0000   0.4219
   1.500   0.7575   0.00677   0.00245  -0.1277  0.6563  0.8623  -1.0368   0.0000   0.0000   0.0000   0.4148
   1.750   0.7808   0.00666   0.00250  -0.1264  0.6516  0.9264  -1.0594   0.0000   0.0000   0.0000   0.4078
   2.000   0.8205   0.00661   0.00247  -0.1289  0.6469  1.0001  -1.0947   0.0000   0.0000   0.0000   0.4027
   2.250   0.8487   0.00667   0.00251  -0.1291  0.6417  1.0001  -1.1228   0.0000   0.0000   0.0000   0.3974
   2.500   0.8767   0.00673   0.00254  -0.1292  0.6360  1.0001  -1.1517   0.0000   0.0000   0.0000   0.3923
   2.750   0.9047   0.00679   0.00258  -0.1293  0.6302  1.0001  -1.1808   0.0000   0.0000   0.0000   0.3875
   3.000   0.9326   0.00687   0.00263  -0.1294  0.6247  1.0001  -1.2111   0.0000   0.0000   0.0000   0.3830
   3.250   0.9607   0.00694   0.00270  -0.1295  0.6188  1.0001  -1.2451   0.0000   0.0000   0.0000   0.3788
   3.750   1.0161   0.00711   0.00283  -0.1296  0.6057  1.0001  -1.3147   0.0000   0.0000   0.0000   0.3709
   4.000   1.0434   0.00721   0.00291  -0.1296  0.5985  1.0001  -1.3499   0.0000   0.0000   0.0000   0.3673
   4.250   1.0703   0.00733   0.00300  -0.1296  0.5909  1.0001  -1.3849   0.0000   0.0000   0.0000   0.3637
   4.500   1.0972   0.00745   0.00310  -0.1295  0.5820  1.0001  -1.4276   0.0000   0.0000   0.0000   0.3604
   4.750   1.1238   0.00759   0.00322  -0.1294  0.5726  1.0001  -1.4717   0.0000   0.0000   0.0000   0.3571
   5.000   1.1501   0.00774   0.00335  -0.1292  0.5627  1.0001  -1.5157   0.0000   0.0000   0.0000   0.3540
   5.250   1.1761   0.00790   0.00349  -0.1290  0.5522  1.0001  -1.5599   0.0000   0.0000   0.0000   0.3510
   5.500   1.2018   0.00807   0.00364  -0.1287  0.5410  1.0001  -1.6039   0.0000   0.0000   0.0000   0.3481
   5.750   1.2269   0.00827   0.00380  -0.1283  0.5290  1.0001  -1.6480   0.0000   0.0000   0.0000   0.3453
   6.000   1.2513   0.00850   0.00400  -0.1278  0.5162  1.0001  -1.7093   0.0000   0.0000   0.0000   0.3425
   6.250   1.2752   0.00876   0.00421  -0.1273  0.5020  1.0001  -1.7726   0.0000   0.0000   0.0000   0.3398
   6.500   1.2973   0.00908   0.00446  -0.1264  0.4837  1.0001  -1.8367   0.0000   0.0000   0.0000   0.3370
   7.250   1.3567   0.01033   0.00545  -0.1227  0.4204  1.0001  -2.0633   0.0000   0.0000   0.0000   0.3289
   7.500   1.3754   0.01078   0.00582  -0.1213  0.4020  1.0001  -2.1419   0.0000   0.0000   0.0000   0.3263
   7.750   1.3912   0.01128   0.00624  -0.1194  0.3826  1.0001  -2.2194   0.0000   0.0000   0.0000   0.3235
   8.000   1.4038   0.01186   0.00673  -0.1170  0.3635  1.0001  -2.3173   0.0000   0.0000   0.0000   0.3206
   8.250   1.4175   0.01245   0.00724  -0.1148  0.3448  1.0001  -2.4191   0.0000   0.0000   0.0000   0.3179
   8.500   1.4314   0.01307   0.00780  -0.1128  0.3270  1.0001  -2.5225   0.0000   0.0000   0.0000   0.3153
   8.750   1.4438   0.01381   0.00847  -0.1107  0.3091  1.0001  -2.6232   0.0000   0.0000   0.0000   0.3128
   9.000   1.4551   0.01465   0.00923  -0.1086  0.2921  1.0001  -2.7225   0.0000   0.0000   0.0000   0.3103
   9.250   1.4675   0.01548   0.01000  -0.1068  0.2746  1.0001  -2.8287   0.0000   0.0000   0.0000   0.3080
   9.500   1.4787   0.01643   0.01087  -0.1049  0.2564  1.0001  -2.9361   0.0000   0.0000   0.0000   0.3058
   9.750   1.4885   0.01749   0.01186  -0.1029  0.2393  1.0001  -3.0409   0.0000   0.0000   0.0000   0.3035
  10.000   1.4980   0.01863   0.01292  -0.1010  0.2241  1.0001  -3.1456   0.0000   0.0000   0.0000   0.3014
  10.250   1.5091   0.01969   0.01394  -0.0994  0.2084  1.0001  -3.2561   0.0000   0.0000   0.0000   0.2993
  10.500   1.5183   0.02089   0.01506  -0.0976  0.1926  1.0001  -3.3625   0.0000   0.0000   0.0000   0.2973
  10.750   1.5265   0.02219   0.01631  -0.0958  0.1796  1.0001  -3.4664   0.0000   0.0000   0.0000   0.2953
  11.000   1.5362   0.02340   0.01748  -0.0942  0.1676  1.0001  -3.5761   0.0000   0.0000   0.0000   0.2934
  11.250   1.5449   0.02470   0.01874  -0.0925  0.1549  1.0001  -3.6836   0.0000   0.0000   0.0000   0.2915
  11.500   1.5527   0.02608   0.02007  -0.0908  0.1420  1.0001  -3.7892   0.0000   0.0000   0.0000   0.2896
  11.750   1.5594   0.02754   0.02149  -0.0891  0.1314  1.0001  -3.8924   0.0000   0.0000   0.0000   0.2878
  12.000   1.5666   0.02900   0.02293  -0.0875  0.1215  1.0001  -3.9974   0.0000   0.0000   0.0000   0.2860
  12.250   1.5728   0.03055   0.02444  -0.0858  0.1116  1.0001  -4.1003   0.0000   0.0000   0.0000   0.2842
  12.500   1.5790   0.03212   0.02598  -0.0842  0.1013  1.0001  -4.2040   0.0000   0.0000   0.0000   0.2825
  13.000   1.5890   0.03558   0.02939  -0.0811  0.0836  1.0001  -4.4043   0.0000   0.0000   0.0000   0.2791
  13.250   1.5944   0.03735   0.03115  -0.0797  0.0769  1.0001  -4.5069   0.0000   0.0000   0.0000   0.2775
  13.500   1.6000   0.03913   0.03294  -0.0783  0.0712  1.0001  -4.6136   0.0000   0.0000   0.0000   0.2760
  13.750   1.6054   0.04096   0.03477  -0.0771  0.0661  1.0001  -4.7239   0.0000   0.0000   0.0000   0.2745
  14.000   1.6104   0.04287   0.03669  -0.0758  0.0615  1.0001  -4.8337   0.0000   0.0000   0.0000   0.2731
  14.250   1.6153   0.04484   0.03868  -0.0747  0.0573  1.0001  -4.9432   0.0000   0.0000   0.0000   0.2717
  14.500   1.6208   0.04679   0.04065  -0.0737  0.0534  1.0001  -5.0557   0.0000   0.0000   0.0000   0.2704
  14.750   1.6255   0.04883   0.04273  -0.0727  0.0499  1.0001  -5.1655   0.0000   0.0000   0.0000   0.2690
  15.000   1.6289   0.05103   0.04495  -0.0717  0.0466  1.0001  -5.2705   0.0000   0.0000   0.0000   0.2678
  15.250   1.6326   0.05323   0.04718  -0.0707  0.0434  1.0001  -5.3773   0.0000   0.0000   0.0000   0.2665
  15.500   1.6363   0.05550   0.04949  -0.0699  0.0404  1.0001  -5.4834   0.0000   0.0000   0.0000   0.2654
  15.750   1.6378   0.05803   0.05205  -0.0691  0.0378  1.0001  -5.5845   0.0000   0.0000   0.0000   0.2642
  16.000   1.6398   0.06054   0.05461  -0.0684  0.0352  1.0001  -5.6975   0.0000   0.0000   0.0000   0.2632
  16.250   1.6406   0.06321   0.05733  -0.0677  0.0329  1.0001  -5.8061   0.0000   0.0000   0.0000   0.2621
  16.500   1.6398   0.06610   0.06025  -0.0670  0.0308  1.0001  -5.9079   0.0000   0.0000   0.0000   0.2612
  16.750   1.6400   0.06894   0.06316  -0.0665  0.0290  1.0001  -6.0136   0.0000   0.0000   0.0000   0.2603
  17.000   1.6387   0.07200   0.06627  -0.0661  0.0274  1.0001  -6.1123   0.0000   0.0000   0.0000   0.2594
  17.250   1.6358   0.07532   0.06965  -0.0657  0.0262  1.0001  -6.2019   0.0000   0.0000   0.0000   0.2587
  17.500   1.6354   0.07836   0.07278  -0.0655  0.0251  1.0001  -6.3069   0.0000   0.0000   0.0000   0.2579
  17.750   1.6323   0.08175   0.07623  -0.0654  0.0241  1.0001  -6.4029   0.0000   0.0000   0.0000   0.2573
  18.000   1.6258   0.08564   0.08018  -0.0653  0.0234  1.0001  -6.4793   0.0000   0.0000   0.0000   0.2568
  18.250   1.6222   0.08924   0.08387  -0.0654  0.0227  1.0001  -6.5696   0.0000   0.0000   0.0000   0.2563
  18.500   1.6197   0.09273   0.08745  -0.0656  0.0221  1.0001  -6.6666   0.0000   0.0000   0.0000   0.2558
  18.750   1.6159   0.09642   0.09123  -0.0659  0.0215  1.0001  -6.7568   0.0000   0.0000   0.0000   0.2555
  19.000   1.6106   0.10036   0.09525  -0.0664  0.0210  1.0001  -6.8373   0.0000   0.0000   0.0000   0.2552
  19.250   1.6031   0.10462   0.09959  -0.0670  0.0205  1.0001  -6.9036   0.0000   0.0000   0.0000   0.2552
  19.500   1.5922   0.10945   0.10450  -0.0679  0.0200  1.0001  -6.9458   0.0000   0.0000   0.0000   0.2553
  19.750   1.5859   0.11369   0.10883  -0.0688  0.0197  1.0001  -7.0138   0.0000   0.0000   0.0000   0.2554
  20.000   1.5813   0.11769   0.11294  -0.0697  0.0194  1.0001  -7.0922   0.0000   0.0000   0.0000   0.2555


