xflr5 v6.61

 Calculated polar for: QX0026 root

 1 1 Reynolds number fixed          Mach number fixed         

 xtrf =   1.000 (top)        1.000 (bottom)
 Mach =   0.000     Re =     0.300 e 6     Ncrit =   9.000

  alpha     CL        CD       CDp       Cm    Top Xtr Bot Xtr   Cpmin    Chinge    XCp    
 ------- -------- --------- --------- -------- ------- ------- -------- --------- ---------
  -9.500  -0.3294   0.04798   0.04428  -0.1205  0.8533  0.0375  -3.8901   0.0000   0.0000   0.0000  -0.1400
  -9.250  -0.3494   0.04034   0.03615  -0.1257  0.8475  0.0369  -4.1311   0.0000   0.0000   0.0000  -0.1322
  -9.000  -0.3551   0.03426   0.02939  -0.1276  0.8432  0.0370  -4.2877   0.0000   0.0000   0.0000  -0.1310
  -8.750  -0.3462   0.03031   0.02486  -0.1280  0.8390  0.0374  -4.3119   0.0000   0.0000   0.0000  -0.1415
  -8.500  -0.3307   0.02750   0.02145  -0.1279  0.8360  0.0379  -4.2716   0.0000   0.0000   0.0000  -0.1588
  -8.250  -0.3108   0.02544   0.01907  -0.1279  0.8321  0.0387  -4.1640   0.0000   0.0000   0.0000  -0.1842
  -8.000  -0.2860   0.02460   0.01826  -0.1279  0.8289  0.0398  -3.9676   0.0000   0.0000   0.0000  -0.2210
  -7.750  -0.2616   0.02368   0.01718  -0.1279  0.8262  0.0411  -3.7975   0.0000   0.0000   0.0000  -0.2639
  -7.500  -0.2377   0.02245   0.01566  -0.1277  0.8224  0.0424  -3.6713   0.0000   0.0000   0.0000  -0.3141
  -7.250  -0.2128   0.02126   0.01415  -0.1276  0.8195  0.0434  -3.5490   0.0000   0.0000   0.0000  -0.3780
  -7.000  -0.1870   0.02032   0.01320  -0.1276  0.8170  0.0446  -3.3866   0.0000   0.0000   0.0000  -0.4632
  -6.750  -0.1611   0.01969   0.01251  -0.1275  0.8132  0.0462  -3.2277   0.0000   0.0000   0.0000  -0.5765
  -6.500  -0.1343   0.01911   0.01169  -0.1274  0.8103  0.0483  -3.0788   0.0000   0.0000   0.0000  -0.7386
  -6.250  -0.1079   0.01830   0.01091  -0.1274  0.8081  0.0501  -2.9293   0.0000   0.0000   0.0000  -0.9783
  -6.000  -0.0816   0.01780   0.01037  -0.1274  0.8043  0.0523  -2.7910   0.0000   0.0000   0.0000  -1.3708
  -5.750  -0.0549   0.01718   0.00967  -0.1273  0.8013  0.0545  -2.6583   0.0000   0.0000   0.0000  -2.1547
  -5.500  -0.0277   0.01670   0.00919  -0.1273  0.7989  0.0573  -2.5108   0.0000   0.0000   0.0000  -4.5074
  -5.250  -0.0013   0.01628   0.00874  -0.1272  0.7953  0.0607  -2.3807   0.0000   0.0000   0.0000  -102.8464
  -5.000   0.0257   0.01589   0.00836  -0.1272  0.7921  0.0644  -2.2532   0.0000   0.0000   0.0000   5.3477
  -4.750   0.0531   0.01544   0.00790  -0.1272  0.7897  0.0685  -2.1276   0.0000   0.0000   0.0000   2.7168
  -4.500   0.0799   0.01512   0.00759  -0.1272  0.7863  0.0740  -2.0034   0.0000   0.0000   0.0000   1.8862
  -4.250   0.1070   0.01480   0.00729  -0.1272  0.7830  0.0807  -1.8793   0.0000   0.0000   0.0000   1.4699
  -4.000   0.1349   0.01447   0.00697  -0.1273  0.7804  0.0898  -1.7541   0.0000   0.0000   0.0000   1.2166
  -3.750   0.1625   0.01417   0.00673  -0.1274  0.7776  0.1029  -1.6397   0.0000   0.0000   0.0000   1.0521
  -3.500   0.1895   0.01391   0.00655  -0.1274  0.7739  0.1228  -1.5301   0.0000   0.0000   0.0000   0.9369
  -3.250   0.2174   0.01361   0.00634  -0.1276  0.7712  0.1502  -1.4173   0.0000   0.0000   0.0000   0.8484
  -3.000   0.2460   0.01332   0.00615  -0.1279  0.7691  0.1829  -1.3030   0.0000   0.0000   0.0000   0.7790
  -2.750   0.2724   0.01315   0.00615  -0.1279  0.7649  0.2202  -1.1945   0.0000   0.0000   0.0000   0.7272
  -2.500   0.3002   0.01289   0.00605  -0.1281  0.7618  0.2688  -1.0858   0.0000   0.0000   0.0000   0.6828
  -2.250   0.3287   0.01263   0.00595  -0.1283  0.7596  0.3295  -0.9842   0.0000   0.0000   0.0000   0.6453
  -2.000   0.3551   0.01249   0.00601  -0.1283  0.7555  0.3889  -0.8886   0.0000   0.0000   0.0000   0.6152
  -1.750   0.3826   0.01229   0.00600  -0.1283  0.7522  0.4502  -0.7932   0.0000   0.0000   0.0000   0.5885
  -1.500   0.4109   0.01206   0.00594  -0.1284  0.7497  0.5157  -0.7743   0.0000   0.0000   0.0000   0.5647
  -1.250   0.4369   0.01197   0.00605  -0.1281  0.7456  0.5770  -0.7889   0.0000   0.0000   0.0000   0.5448
  -1.000   0.4636   0.01184   0.00609  -0.1278  0.7421  0.6363  -0.8059   0.0000   0.0000   0.0000   0.5266
  -0.750   0.4914   0.01172   0.00606  -0.1275  0.7396  0.6909  -0.8251   0.0000   0.0000   0.0000   0.5099
  -0.500   0.5168   0.01171   0.00618  -0.1270  0.7356  0.7353  -0.8429   0.0000   0.0000   0.0000   0.4955
  -0.250   0.5427   0.01163   0.00621  -0.1263  0.7321  0.7764  -0.8612   0.0000   0.0000   0.0000   0.4822
   0.000   0.5688   0.01148   0.00613  -0.1256  0.7294  0.8197  -0.8803   0.0000   0.0000   0.0000   0.4696
   0.250   0.5909   0.01143   0.00622  -0.1241  0.7246  0.8674  -0.8966   0.0000   0.0000   0.0000   0.4584
   0.500   0.6174   0.01128   0.00611  -0.1232  0.7208  0.9237  -0.9184   0.0000   0.0000   0.0000   0.4476
   0.750   0.6630   0.01115   0.00593  -0.1267  0.7179  0.9847  -0.9518   0.0000   0.0000   0.0000   0.4387
   1.000   0.6937   0.01125   0.00601  -0.1276  0.7130  1.0001  -0.9760   0.0000   0.0000   0.0000   0.4312
   1.250   0.7229   0.01125   0.00593  -0.1279  0.7097  1.0001  -1.0001   0.0000   0.0000   0.0000   0.4239
   1.500   0.7503   0.01132   0.00596  -0.1280  0.7053  1.0001  -1.0230   0.0000   0.0000   0.0000   0.4171
   1.750   0.7783   0.01134   0.00592  -0.1281  0.7006  1.0001  -1.0487   0.0000   0.0000   0.0000   0.4107
   2.000   0.8077   0.01132   0.00583  -0.1283  0.6969  1.0001  -1.0775   0.0000   0.0000   0.0000   0.4047
   2.250   0.8341   0.01141   0.00591  -0.1282  0.6914  1.0001  -1.1042   0.0000   0.0000   0.0000   0.3992
   2.500   0.8638   0.01140   0.00584  -0.1285  0.6879  1.0001  -1.1337   0.0000   0.0000   0.0000   0.3939
   2.750   0.8900   0.01150   0.00594  -0.1283  0.6822  1.0001  -1.1613   0.0000   0.0000   0.0000   0.3890
   3.000   0.9192   0.01147   0.00587  -0.1285  0.6779  1.0001  -1.1929   0.0000   0.0000   0.0000   0.3843
   3.250   0.9456   0.01155   0.00595  -0.1283  0.6720  1.0001  -1.2255   0.0000   0.0000   0.0000   0.3799
   3.500   0.9746   0.01154   0.00588  -0.1285  0.6672  1.0001  -1.2605   0.0000   0.0000   0.0000   0.3757
   3.750   1.0006   0.01160   0.00597  -0.1282  0.6605  1.0001  -1.2940   0.0000   0.0000   0.0000   0.3717
   4.000   1.0298   0.01158   0.00589  -0.1284  0.6554  1.0001  -1.3308   0.0000   0.0000   0.0000   0.3679
   4.250   1.0551   0.01166   0.00602  -0.1280  0.6484  1.0001  -1.3643   0.0000   0.0000   0.0000   0.3642
   4.500   1.0824   0.01172   0.00607  -0.1280  0.6423  1.0001  -1.4063   0.0000   0.0000   0.0000   0.3607
   4.750   1.1095   0.01175   0.00608  -0.1278  0.6356  1.0001  -1.4503   0.0000   0.0000   0.0000   0.3574
   5.000   1.1348   0.01183   0.00620  -0.1274  0.6277  1.0001  -1.4932   0.0000   0.0000   0.0000   0.3541
   5.250   1.1610   0.01190   0.00628  -0.1271  0.6204  1.0001  -1.5374   0.0000   0.0000   0.0000   0.3510
   5.500   1.1877   0.01195   0.00630  -0.1269  0.6129  1.0001  -1.5824   0.0000   0.0000   0.0000   0.3480
   5.750   1.2122   0.01204   0.00641  -0.1264  0.6032  1.0001  -1.6258   0.0000   0.0000   0.0000   0.3450
   6.000   1.2366   0.01214   0.00652  -0.1258  0.5929  1.0001  -1.6830   0.0000   0.0000   0.0000   0.3421
   6.250   1.2607   0.01227   0.00666  -0.1251  0.5823  1.0001  -1.7464   0.0000   0.0000   0.0000   0.3393
   6.500   1.2843   0.01244   0.00682  -0.1244  0.5713  1.0001  -1.8116   0.0000   0.0000   0.0000   0.3366
   7.000   1.3300   0.01286   0.00724  -0.1228  0.5481  1.0001  -1.9614   0.0000   0.0000   0.0000   0.3313
   7.250   1.3507   0.01311   0.00751  -0.1216  0.5340  1.0001  -2.0410   0.0000   0.0000   0.0000   0.3286
   7.500   1.3698   0.01341   0.00778  -0.1202  0.5179  1.0001  -2.1203   0.0000   0.0000   0.0000   0.3259
   7.750   1.3867   0.01379   0.00812  -0.1184  0.4994  1.0001  -2.1967   0.0000   0.0000   0.0000   0.3231
   8.000   1.4019   0.01424   0.00850  -0.1163  0.4809  1.0001  -2.2937   0.0000   0.0000   0.0000   0.3203
   8.250   1.4149   0.01473   0.00895  -0.1139  0.4627  1.0001  -2.3933   0.0000   0.0000   0.0000   0.3175
   8.500   1.4256   0.01530   0.00947  -0.1111  0.4450  1.0001  -2.4884   0.0000   0.0000   0.0000   0.3145
   8.750   1.4352   0.01599   0.01010  -0.1084  0.4275  1.0001  -2.5818   0.0000   0.0000   0.0000   0.3117
   9.000   1.4442   0.01678   0.01084  -0.1057  0.4090  1.0001  -2.6746   0.0000   0.0000   0.0000   0.3089
   9.250   1.4521   0.01768   0.01169  -0.1031  0.3904  1.0001  -2.7655   0.0000   0.0000   0.0000   0.3063
   9.500   1.4592   0.01871   0.01265  -0.1005  0.3726  1.0001  -2.8546   0.0000   0.0000   0.0000   0.3038
   9.750   1.4663   0.01982   0.01371  -0.0982  0.3551  1.0001  -2.9479   0.0000   0.0000   0.0000   0.3013
  10.000   1.4738   0.02097   0.01483  -0.0960  0.3380  1.0001  -3.0452   0.0000   0.0000   0.0000   0.2991
  10.250   1.4801   0.02226   0.01606  -0.0938  0.3213  1.0001  -3.1399   0.0000   0.0000   0.0000   0.2968
  10.500   1.4864   0.02359   0.01736  -0.0917  0.3049  1.0001  -3.2354   0.0000   0.0000   0.0000   0.2947
  10.750   1.4920   0.02502   0.01874  -0.0896  0.2896  1.0001  -3.3292   0.0000   0.0000   0.0000   0.2926
  11.000   1.4975   0.02651   0.02021  -0.0877  0.2734  1.0001  -3.4234   0.0000   0.0000   0.0000   0.2906
  11.250   1.5026   0.02806   0.02172  -0.0858  0.2570  1.0001  -3.5170   0.0000   0.0000   0.0000   0.2887
  11.500   1.5056   0.02979   0.02339  -0.0838  0.2417  1.0001  -3.6049   0.0000   0.0000   0.0000   0.2867
  11.750   1.5087   0.03156   0.02511  -0.0819  0.2265  1.0001  -3.6935   0.0000   0.0000   0.0000   0.2848
  12.000   1.5124   0.03331   0.02684  -0.0801  0.2111  1.0001  -3.7842   0.0000   0.0000   0.0000   0.2830
  12.250   1.5149   0.03521   0.02870  -0.0784  0.1961  1.0001  -3.8715   0.0000   0.0000   0.0000   0.2813
  12.500   1.5170   0.03721   0.03066  -0.0767  0.1827  1.0001  -3.9576   0.0000   0.0000   0.0000   0.2796
  12.750   1.5193   0.03924   0.03266  -0.0751  0.1704  1.0001  -4.0443   0.0000   0.0000   0.0000   0.2780
  13.000   1.5223   0.04127   0.03469  -0.0737  0.1573  1.0001  -4.1335   0.0000   0.0000   0.0000   0.2764
  13.250   1.5244   0.04344   0.03683  -0.0723  0.1448  1.0001  -4.2199   0.0000   0.0000   0.0000   0.2749
  13.500   1.5249   0.04582   0.03918  -0.0709  0.1337  1.0001  -4.3005   0.0000   0.0000   0.0000   0.2735
  13.750   1.5256   0.04823   0.04158  -0.0697  0.1234  1.0001  -4.3815   0.0000   0.0000   0.0000   0.2721
  14.000   1.5265   0.05067   0.04402  -0.0685  0.1137  1.0001  -4.4679   0.0000   0.0000   0.0000   0.2708
  14.250   1.5266   0.05324   0.04659  -0.0674  0.1050  1.0001  -4.5525   0.0000   0.0000   0.0000   0.2695
  14.500   1.5267   0.05589   0.04924  -0.0665  0.0972  1.0001  -4.6364   0.0000   0.0000   0.0000   0.2683
  14.750   1.5265   0.05863   0.05199  -0.0656  0.0903  1.0001  -4.7187   0.0000   0.0000   0.0000   0.2672
  15.000   1.5249   0.06154   0.05492  -0.0647  0.0844  1.0001  -4.7957   0.0000   0.0000   0.0000   0.2661
  15.250   1.5228   0.06458   0.05797  -0.0640  0.0792  1.0001  -4.8694   0.0000   0.0000   0.0000   0.2651
  15.500   1.5218   0.06755   0.06100  -0.0634  0.0742  1.0001  -4.9469   0.0000   0.0000   0.0000   0.2642
  15.750   1.5204   0.07063   0.06413  -0.0629  0.0697  1.0001  -5.0218   0.0000   0.0000   0.0000   0.2633
  16.000   1.5177   0.07391   0.06746  -0.0625  0.0658  1.0001  -5.0909   0.0000   0.0000   0.0000   0.2626
  16.250   1.5136   0.07741   0.07097  -0.0622  0.0624  1.0001  -5.1574   0.0000   0.0000   0.0000   0.2619
  16.500   1.5124   0.08060   0.07425  -0.0620  0.0587  1.0001  -5.2369   0.0000   0.0000   0.0000   0.2612
  16.750   1.5080   0.08423   0.07793  -0.0619  0.0557  1.0001  -5.3027   0.0000   0.0000   0.0000   0.2607
  17.000   1.5046   0.08780   0.08157  -0.0619  0.0529  1.0001  -5.3779   0.0000   0.0000   0.0000   0.2602
  17.250   1.5007   0.09148   0.08531  -0.0620  0.0503  1.0001  -5.4478   0.0000   0.0000   0.0000   0.2598
  17.500   1.4967   0.09522   0.08910  -0.0623  0.0480  1.0001  -5.5181   0.0000   0.0000   0.0000   0.2594
  17.750   1.4926   0.09897   0.09293  -0.0625  0.0458  1.0001  -5.5839   0.0000   0.0000   0.0000   0.2591
  18.000   1.4894   0.10264   0.09667  -0.0630  0.0438  1.0001  -5.6550   0.0000   0.0000   0.0000   0.2589
  18.250   1.4846   0.10648   0.10052  -0.0634  0.0423  1.0001  -5.7174   0.0000   0.0000   0.0000   0.2587
  18.500   1.4828   0.11004   0.10421  -0.0640  0.0406  1.0001  -5.7904   0.0000   0.0000   0.0000   0.2585
  18.750   1.4804   0.11367   0.10788  -0.0647  0.0392  1.0001  -5.8674   0.0000   0.0000   0.0000   0.2585
  19.000   1.4784   0.11712   0.11134  -0.0653  0.0379  1.0001  -5.9485   0.0000   0.0000   0.0000   0.2583
  19.250   1.4773   0.12066   0.11501  -0.0661  0.0366  1.0001  -6.0298   0.0000   0.0000   0.0000   0.2582
  19.500   1.4765   0.12409   0.11850  -0.0670  0.0354  1.0001  -6.1168   0.0000   0.0000   0.0000   0.2582
  19.750   1.4769   0.12715   0.12156  -0.0677  0.0345  1.0001  -6.2133   0.0000   0.0000   0.0000   0.2580
  20.000   1.4777   0.13020   0.12469  -0.0684  0.0336  1.0001  -6.3041   0.0000   0.0000   0.0000   0.2579


