xflr5 v6.61

 Calculated polar for: QX0026 root

 1 1 Reynolds number fixed          Mach number fixed         

 xtrf =   1.000 (top)        1.000 (bottom)
 Mach =   0.000     Re =     0.520 e 6     Ncrit =   9.000

  alpha     CL        CD       CDp       Cm    Top Xtr Bot Xtr   Cpmin    Chinge    XCp    
 ------- -------- --------- --------- -------- ------- ------- -------- --------- ---------
 -10.000  -0.5004   0.02438   0.01886  -0.1233  0.8173  0.0254  -5.9182   0.0000   0.0000   0.0000  -0.0154
  -9.750  -0.4796   0.02281   0.01723  -0.1233  0.8137  0.0259  -5.7379   0.0000   0.0000   0.0000  -0.0263
  -9.500  -0.4555   0.02208   0.01643  -0.1234  0.8106  0.0265  -5.5184   0.0000   0.0000   0.0000  -0.0402
  -9.250  -0.4309   0.02144   0.01568  -0.1234  0.8079  0.0273  -5.3018   0.0000   0.0000   0.0000  -0.0560
  -9.000  -0.4062   0.02068   0.01479  -0.1235  0.8044  0.0281  -5.0997   0.0000   0.0000   0.0000  -0.0740
  -8.750  -0.3813   0.01988   0.01378  -0.1235  0.8014  0.0289  -4.9092   0.0000   0.0000   0.0000  -0.0942
  -8.500  -0.3568   0.01887   0.01257  -0.1234  0.7990  0.0296  -4.7281   0.0000   0.0000   0.0000  -0.1169
  -8.250  -0.3316   0.01801   0.01171  -0.1235  0.7959  0.0303  -4.5260   0.0000   0.0000   0.0000  -0.1439
  -8.000  -0.3054   0.01746   0.01111  -0.1235  0.7928  0.0312  -4.3175   0.0000   0.0000   0.0000  -0.1771
  -7.750  -0.2787   0.01696   0.01051  -0.1236  0.7902  0.0322  -4.1214   0.0000   0.0000   0.0000  -0.2170
  -7.500  -0.2516   0.01652   0.00993  -0.1236  0.7878  0.0333  -3.9394   0.0000   0.0000   0.0000  -0.2664
  -7.250  -0.2258   0.01573   0.00911  -0.1236  0.7847  0.0344  -3.7689   0.0000   0.0000   0.0000  -0.3243
  -7.000  -0.1989   0.01524   0.00861  -0.1237  0.7819  0.0355  -3.5841   0.0000   0.0000   0.0000  -0.4009
  -6.750  -0.1715   0.01484   0.00812  -0.1238  0.7796  0.0368  -3.4040   0.0000   0.0000   0.0000  -0.5037
  -6.500  -0.1439   0.01448   0.00768  -0.1238  0.7769  0.0381  -3.2368   0.0000   0.0000   0.0000  -0.6470
  -6.250  -0.1174   0.01389   0.00711  -0.1239  0.7739  0.0397  -3.0808   0.0000   0.0000   0.0000  -0.8481
  -6.000  -0.0895   0.01358   0.00677  -0.1240  0.7713  0.0416  -2.9167   0.0000   0.0000   0.0000  -1.1882
  -5.750  -0.0617   0.01324   0.00633  -0.1241  0.7691  0.0436  -2.7621   0.0000   0.0000   0.0000  -1.8362
  -5.500  -0.0344   0.01285   0.00598  -0.1242  0.7660  0.0458  -2.6061   0.0000   0.0000   0.0000  -3.4906
  -5.250  -0.0062   0.01260   0.00568  -0.1243  0.7630  0.0483  -2.4662   0.0000   0.0000   0.0000  -20.5379
  -5.000   0.0216   0.01222   0.00531  -0.1245  0.7606  0.0513  -2.3270   0.0000   0.0000   0.0000   6.1894
  -4.750   0.0498   0.01197   0.00502  -0.1247  0.7581  0.0549  -2.1893   0.0000   0.0000   0.0000   2.8244
  -4.500   0.0780   0.01174   0.00480  -0.1248  0.7549  0.0592  -2.0519   0.0000   0.0000   0.0000   1.8941
  -4.250   0.1062   0.01146   0.00453  -0.1250  0.7522  0.0644  -1.9175   0.0000   0.0000   0.0000   1.4566
  -4.000   0.1349   0.01123   0.00429  -0.1252  0.7499  0.0717  -1.7840   0.0000   0.0000   0.0000   1.2004
  -3.750   0.1631   0.01098   0.00410  -0.1254  0.7472  0.0823  -1.6614   0.0000   0.0000   0.0000   1.0358
  -3.500   0.1914   0.01075   0.00393  -0.1256  0.7441  0.0989  -1.5431   0.0000   0.0000   0.0000   0.9196
  -3.250   0.2199   0.01052   0.00378  -0.1258  0.7415  0.1214  -1.4246   0.0000   0.0000   0.0000   0.8329
  -3.000   0.2487   0.01033   0.00364  -0.1261  0.7392  0.1466  -1.3068   0.0000   0.0000   0.0000   0.7656
  -2.750   0.2769   0.01014   0.00357  -0.1264  0.7361  0.1743  -1.1922   0.0000   0.0000   0.0000   0.7131
  -2.500   0.3054   0.00995   0.00349  -0.1266  0.7330  0.2061  -1.0797   0.0000   0.0000   0.0000   0.6701
  -2.250   0.3340   0.00974   0.00338  -0.1269  0.7303  0.2462  -0.9772   0.0000   0.0000   0.0000   0.6342
  -2.000   0.3625   0.00955   0.00333  -0.1272  0.7275  0.2966  -0.8772   0.0000   0.0000   0.0000   0.6041
  -1.750   0.3906   0.00935   0.00331  -0.1274  0.7238  0.3492  -0.7810   0.0000   0.0000   0.0000   0.5786
  -1.500   0.4191   0.00917   0.00326  -0.1276  0.7208  0.4009  -0.7877   0.0000   0.0000   0.0000   0.5562
  -1.250   0.4479   0.00901   0.00322  -0.1279  0.7184  0.4564  -0.8044   0.0000   0.0000   0.0000   0.5366
  -1.000   0.4755   0.00884   0.00327  -0.1279  0.7146  0.5163  -0.8202   0.0000   0.0000   0.0000   0.5196
  -0.750   0.5037   0.00870   0.00327  -0.1280  0.7114  0.5721  -0.8385   0.0000   0.0000   0.0000   0.5042
  -0.500   0.5320   0.00857   0.00326  -0.1281  0.7085  0.6268  -0.8584   0.0000   0.0000   0.0000   0.4903
   0.000   0.5872   0.00839   0.00331  -0.1279  0.7002  0.7157  -0.8974   0.0000   0.0000   0.0000   0.4664
   0.250   0.6152   0.00834   0.00330  -0.1278  0.6971  0.7513  -0.9173   0.0000   0.0000   0.0000   0.4559
   0.500   0.6418   0.00826   0.00336  -0.1275  0.6929  0.7871  -0.9384   0.0000   0.0000   0.0000   0.4464
   0.750   0.6684   0.00817   0.00336  -0.1270  0.6892  0.8266  -0.9610   0.0000   0.0000   0.0000   0.4375
   1.000   0.6931   0.00808   0.00338  -0.1261  0.6853  0.8735  -0.9826   0.0000   0.0000   0.0000   0.4290
   1.250   0.7179   0.00797   0.00339  -0.1251  0.6808  0.9349  -1.0044   0.0000   0.0000   0.0000   0.4210
   1.500   0.7618   0.00792   0.00330  -0.1285  0.6771  1.0001  -1.0371   0.0000   0.0000   0.0000   0.4150
   1.750   0.7892   0.00797   0.00334  -0.1285  0.6721  1.0001  -1.0622   0.0000   0.0000   0.0000   0.4088
   2.000   0.8176   0.00801   0.00333  -0.1287  0.6677  1.0001  -1.0904   0.0000   0.0000   0.0000   0.4031
   2.250   0.8454   0.00807   0.00337  -0.1288  0.6628  1.0001  -1.1182   0.0000   0.0000   0.0000   0.3977
   2.500   0.8735   0.00812   0.00340  -0.1289  0.6581  1.0001  -1.1468   0.0000   0.0000   0.0000   0.3926
   2.750   0.9013   0.00819   0.00343  -0.1290  0.6531  1.0001  -1.1758   0.0000   0.0000   0.0000   0.3878
   3.000   0.9289   0.00823   0.00346  -0.1290  0.6471  1.0001  -1.2061   0.0000   0.0000   0.0000   0.3832
   3.250   0.9564   0.00830   0.00351  -0.1290  0.6410  1.0001  -1.2396   0.0000   0.0000   0.0000   0.3789
   3.500   0.9841   0.00837   0.00355  -0.1290  0.6355  1.0001  -1.2738   0.0000   0.0000   0.0000   0.3748
   3.750   1.0114   0.00845   0.00365  -0.1290  0.6296  1.0001  -1.3086   0.0000   0.0000   0.0000   0.3709
   4.250   1.0656   0.00861   0.00379  -0.1289  0.6161  1.0001  -1.3786   0.0000   0.0000   0.0000   0.3637
   4.500   1.0925   0.00871   0.00389  -0.1288  0.6089  1.0001  -1.4210   0.0000   0.0000   0.0000   0.3603
   4.750   1.1191   0.00882   0.00397  -0.1286  0.6013  1.0001  -1.4650   0.0000   0.0000   0.0000   0.3570
   5.000   1.1452   0.00894   0.00407  -0.1284  0.5923  1.0001  -1.5088   0.0000   0.0000   0.0000   0.3538
   5.250   1.1709   0.00907   0.00421  -0.1281  0.5827  1.0001  -1.5526   0.0000   0.0000   0.0000   0.3508
   5.500   1.1964   0.00923   0.00435  -0.1277  0.5726  1.0001  -1.5964   0.0000   0.0000   0.0000   0.3478
   5.750   1.2214   0.00940   0.00451  -0.1273  0.5620  1.0001  -1.6404   0.0000   0.0000   0.0000   0.3449
   6.000   1.2461   0.00959   0.00469  -0.1269  0.5511  1.0001  -1.7006   0.0000   0.0000   0.0000   0.3422
   6.250   1.2703   0.00979   0.00488  -0.1263  0.5395  1.0001  -1.7641   0.0000   0.0000   0.0000   0.3394
   6.500   1.2936   0.01003   0.00509  -0.1257  0.5269  1.0001  -1.8294   0.0000   0.0000   0.0000   0.3367
   6.750   1.3160   0.01030   0.00534  -0.1248  0.5120  1.0001  -1.9024   0.0000   0.0000   0.0000   0.3341
   7.000   1.3358   0.01067   0.00563  -0.1235  0.4935  1.0001  -1.9782   0.0000   0.0000   0.0000   0.3313
   7.250   1.3542   0.01108   0.00597  -0.1220  0.4723  1.0001  -2.0555   0.0000   0.0000   0.0000   0.3286
   7.500   1.3719   0.01152   0.00634  -0.1204  0.4524  1.0001  -2.1324   0.0000   0.0000   0.0000   0.3259
   7.750   1.3884   0.01200   0.00676  -0.1186  0.4342  1.0001  -2.2095   0.0000   0.0000   0.0000   0.3232
   8.000   1.4011   0.01253   0.00722  -0.1162  0.4167  1.0001  -2.3049   0.0000   0.0000   0.0000   0.3202
   8.250   1.4134   0.01313   0.00775  -0.1137  0.3975  1.0001  -2.4028   0.0000   0.0000   0.0000   0.3174
   8.500   1.4245   0.01383   0.00838  -0.1113  0.3782  1.0001  -2.4991   0.0000   0.0000   0.0000   0.3146
   8.750   1.4352   0.01462   0.00910  -0.1089  0.3600  1.0001  -2.5953   0.0000   0.0000   0.0000   0.3120
   9.000   1.4456   0.01548   0.00990  -0.1067  0.3428  1.0001  -2.6919   0.0000   0.0000   0.0000   0.3095
   9.250   1.4571   0.01635   0.01072  -0.1048  0.3251  1.0001  -2.7921   0.0000   0.0000   0.0000   0.3071
   9.500   1.4670   0.01737   0.01167  -0.1027  0.3078  1.0001  -2.8931   0.0000   0.0000   0.0000   0.3048
   9.750   1.4755   0.01851   0.01275  -0.1006  0.2915  1.0001  -2.9933   0.0000   0.0000   0.0000   0.3026
  10.000   1.4856   0.01961   0.01380  -0.0988  0.2744  1.0001  -3.0989   0.0000   0.0000   0.0000   0.3004
  10.250   1.4942   0.02083   0.01496  -0.0970  0.2566  1.0001  -3.2012   0.0000   0.0000   0.0000   0.2983
  10.500   1.5013   0.02219   0.01624  -0.0950  0.2400  1.0001  -3.3001   0.0000   0.0000   0.0000   0.2963
  10.750   1.5080   0.02360   0.01760  -0.0931  0.2250  1.0001  -3.3985   0.0000   0.0000   0.0000   0.2942
  11.000   1.5161   0.02494   0.01889  -0.0914  0.2090  1.0001  -3.5021   0.0000   0.0000   0.0000   0.2923
  11.250   1.5226   0.02642   0.02031  -0.0896  0.1933  1.0001  -3.6015   0.0000   0.0000   0.0000   0.2904
  11.750   1.5348   0.02948   0.02329  -0.0861  0.1685  1.0001  -3.8001   0.0000   0.0000   0.0000   0.2867
  12.000   1.5409   0.03105   0.02483  -0.0844  0.1560  1.0001  -3.9004   0.0000   0.0000   0.0000   0.2849
  12.250   1.5466   0.03267   0.02641  -0.0828  0.1435  1.0001  -3.9999   0.0000   0.0000   0.0000   0.2831
  12.750   1.5555   0.03624   0.02992  -0.0796  0.1225  1.0001  -4.1921   0.0000   0.0000   0.0000   0.2798
  13.000   1.5599   0.03810   0.03176  -0.0782  0.1125  1.0001  -4.2886   0.0000   0.0000   0.0000   0.2782
  13.250   1.5641   0.04000   0.03365  -0.0767  0.1028  1.0001  -4.3849   0.0000   0.0000   0.0000   0.2766
  13.500   1.5679   0.04200   0.03563  -0.0754  0.0935  1.0001  -4.4797   0.0000   0.0000   0.0000   0.2751
  13.750   1.5705   0.04415   0.03776  -0.0741  0.0858  1.0001  -4.5767   0.0000   0.0000   0.0000   0.2736
  14.000   1.5731   0.04636   0.03996  -0.0728  0.0793  1.0001  -4.6741   0.0000   0.0000   0.0000   0.2722
  14.250   1.5758   0.04859   0.04220  -0.0717  0.0735  1.0001  -4.7726   0.0000   0.0000   0.0000   0.2709
  14.500   1.5788   0.05083   0.04447  -0.0707  0.0684  1.0001  -4.8722   0.0000   0.0000   0.0000   0.2696
  14.750   1.5818   0.05312   0.04680  -0.0697  0.0637  1.0001  -4.9720   0.0000   0.0000   0.0000   0.2684
  15.000   1.5842   0.05552   0.04923  -0.0688  0.0596  1.0001  -5.0695   0.0000   0.0000   0.0000   0.2672
  15.250   1.5855   0.05809   0.05183  -0.0680  0.0559  1.0001  -5.1625   0.0000   0.0000   0.0000   0.2660
  15.500   1.5863   0.06075   0.05453  -0.0672  0.0524  1.0001  -5.2535   0.0000   0.0000   0.0000   0.2650
  15.750   1.5880   0.06333   0.05717  -0.0666  0.0491  1.0001  -5.3475   0.0000   0.0000   0.0000   0.2639
  16.000   1.5874   0.06623   0.06011  -0.0659  0.0462  1.0001  -5.4370   0.0000   0.0000   0.0000   0.2630
  16.250   1.5869   0.06917   0.06310  -0.0654  0.0434  1.0001  -5.5309   0.0000   0.0000   0.0000   0.2621
  16.500   1.5862   0.07219   0.06619  -0.0650  0.0408  1.0001  -5.6272   0.0000   0.0000   0.0000   0.2612
  16.750   1.5827   0.07561   0.06964  -0.0647  0.0386  1.0001  -5.7102   0.0000   0.0000   0.0000   0.2605
  17.000   1.5812   0.07882   0.07293  -0.0644  0.0364  1.0001  -5.8015   0.0000   0.0000   0.0000   0.2598
  17.250   1.5763   0.08248   0.07665  -0.0643  0.0347  1.0001  -5.8764   0.0000   0.0000   0.0000   0.2592
  17.500   1.5720   0.08615   0.08040  -0.0643  0.0331  1.0001  -5.9520   0.0000   0.0000   0.0000   0.2587
  17.750   1.5685   0.08976   0.08409  -0.0644  0.0317  1.0001  -6.0322   0.0000   0.0000   0.0000   0.2583
  18.000   1.5608   0.09400   0.08839  -0.0647  0.0306  1.0001  -6.0896   0.0000   0.0000   0.0000   0.2581
  18.250   1.5557   0.09794   0.09242  -0.0651  0.0295  1.0001  -6.1638   0.0000   0.0000   0.0000   0.2578
  18.500   1.5517   0.10176   0.09634  -0.0656  0.0285  1.0001  -6.2436   0.0000   0.0000   0.0000   0.2576
  18.750   1.5460   0.10583   0.10050  -0.0662  0.0277  1.0001  -6.3140   0.0000   0.0000   0.0000   0.2575
  19.000   1.5377   0.11032   0.10505  -0.0670  0.0271  1.0001  -6.3683   0.0000   0.0000   0.0000   0.2576
  19.250   1.5282   0.11507   0.10987  -0.0681  0.0265  1.0001  -6.4105   0.0000   0.0000   0.0000   0.2580
  19.500   1.5250   0.11894   0.11385  -0.0690  0.0259  1.0001  -6.4888   0.0000   0.0000   0.0000   0.2580
  19.750   1.5209   0.12296   0.11797  -0.0701  0.0252  1.0001  -6.5611   0.0000   0.0000   0.0000   0.2582
  20.000   1.5166   0.12706   0.12216  -0.0713  0.0247  1.0001  -6.6311   0.0000   0.0000   0.0000   0.2585


