xflr5 v6.61

 Calculated polar for: QX0026 root

 1 1 Reynolds number fixed          Mach number fixed         

 xtrf =   1.000 (top)        1.000 (bottom)
 Mach =   0.000     Re =     1.000 e 6     Ncrit =   9.000

  alpha     CL        CD       CDp       Cm    Top Xtr Bot Xtr   Cpmin    Chinge    XCp    
 ------- -------- --------- --------- -------- ------- ------- -------- --------- ---------
 -10.000  -0.5343   0.01635   0.01098  -0.1204  0.7815  0.0205  -6.4197   0.0000   0.0000   0.0000   0.0065
  -9.750  -0.5081   0.01590   0.01043  -0.1204  0.7789  0.0209  -6.1760   0.0000   0.0000   0.0000  -0.0054
  -9.500  -0.4813   0.01548   0.00994  -0.1205  0.7761  0.0213  -5.9320   0.0000   0.0000   0.0000  -0.0190
  -9.250  -0.4556   0.01485   0.00923  -0.1206  0.7733  0.0218  -5.7043   0.0000   0.0000   0.0000  -0.0335
  -9.000  -0.4300   0.01421   0.00854  -0.1206  0.7708  0.0225  -5.4761   0.0000   0.0000   0.0000  -0.0496
  -8.750  -0.4027   0.01390   0.00819  -0.1207  0.7683  0.0231  -5.2326   0.0000   0.0000   0.0000  -0.0693
  -8.500  -0.3751   0.01358   0.00784  -0.1209  0.7655  0.0238  -4.9943   0.0000   0.0000   0.0000  -0.0924
  -8.250  -0.3475   0.01325   0.00745  -0.1210  0.7629  0.0245  -4.7643   0.0000   0.0000   0.0000  -0.1189
  -8.000  -0.3198   0.01295   0.00708  -0.1211  0.7606  0.0250  -4.5393   0.0000   0.0000   0.0000  -0.1503
  -7.750  -0.2929   0.01246   0.00652  -0.1212  0.7582  0.0257  -4.3426   0.0000   0.0000   0.0000  -0.1863
  -7.500  -0.2654   0.01206   0.00611  -0.1214  0.7554  0.0266  -4.1388   0.0000   0.0000   0.0000  -0.2309
  -7.250  -0.2372   0.01181   0.00584  -0.1216  0.7528  0.0276  -3.9316   0.0000   0.0000   0.0000  -0.2876
  -7.000  -0.2090   0.01158   0.00556  -0.1217  0.7506  0.0286  -3.7304   0.0000   0.0000   0.0000  -0.3598
  -6.750  -0.1805   0.01138   0.00530  -0.1219  0.7482  0.0293  -3.5379   0.0000   0.0000   0.0000  -0.4552
  -6.500  -0.1530   0.01092   0.00484  -0.1220  0.7455  0.0308  -3.3672   0.0000   0.0000   0.0000  -0.5814
  -6.250  -0.1246   0.01070   0.00460  -0.1222  0.7428  0.0320  -3.1892   0.0000   0.0000   0.0000  -0.7710
  -6.000  -0.0959   0.01052   0.00437  -0.1224  0.7404  0.0333  -3.0153   0.0000   0.0000   0.0000  -1.0749
  -5.750  -0.0678   0.01022   0.00404  -0.1226  0.7379  0.0351  -2.8483   0.0000   0.0000   0.0000  -1.6250
  -5.500  -0.0390   0.01003   0.00386  -0.1228  0.7351  0.0370  -2.6858   0.0000   0.0000   0.0000  -3.0052
  -5.250  -0.0103   0.00982   0.00362  -0.1230  0.7325  0.0390  -2.5349   0.0000   0.0000   0.0000  -12.0296
  -5.000   0.0183   0.00962   0.00341  -0.1233  0.7301  0.0414  -2.3846   0.0000   0.0000   0.0000   7.1861
  -4.750   0.0471   0.00946   0.00322  -0.1235  0.7278  0.0439  -2.2377   0.0000   0.0000   0.0000   2.9443
  -4.500   0.0760   0.00926   0.00304  -0.1237  0.7251  0.0472  -2.0923   0.0000   0.0000   0.0000   1.9223
  -4.250   0.1048   0.00908   0.00287  -0.1240  0.7224  0.0512  -1.9499   0.0000   0.0000   0.0000   1.4622
  -4.000   0.1337   0.00892   0.00271  -0.1242  0.7201  0.0565  -1.8100   0.0000   0.0000   0.0000   1.2004
  -3.750   0.1626   0.00878   0.00257  -0.1245  0.7177  0.0639  -1.6805   0.0000   0.0000   0.0000   1.0318
  -3.500   0.1915   0.00859   0.00244  -0.1248  0.7149  0.0751  -1.5565   0.0000   0.0000   0.0000   0.9141
  -3.250   0.2204   0.00842   0.00233  -0.1250  0.7121  0.0916  -1.4343   0.0000   0.0000   0.0000   0.8274
  -3.000   0.2493   0.00826   0.00223  -0.1253  0.7095  0.1105  -1.3143   0.0000   0.0000   0.0000   0.7607
  -2.750   0.2782   0.00812   0.00215  -0.1256  0.7067  0.1311  -1.1967   0.0000   0.0000   0.0000   0.7079
  -2.500   0.3071   0.00797   0.00208  -0.1259  0.7034  0.1523  -1.0817   0.0000   0.0000   0.0000   0.6650
  -2.250   0.3360   0.00783   0.00200  -0.1262  0.7004  0.1776  -0.9763   0.0000   0.0000   0.0000   0.6294
  -2.000   0.3649   0.00771   0.00194  -0.1265  0.6978  0.2072  -0.8750   0.0000   0.0000   0.0000   0.5996
  -1.750   0.3938   0.00754   0.00190  -0.1268  0.6947  0.2424  -0.7774   0.0000   0.0000   0.0000   0.5742
  -1.500   0.4226   0.00736   0.00186  -0.1271  0.6914  0.2881  -0.7940   0.0000   0.0000   0.0000   0.5523
  -1.250   0.4513   0.00723   0.00183  -0.1274  0.6882  0.3342  -0.8107   0.0000   0.0000   0.0000   0.5331
  -1.000   0.4801   0.00709   0.00182  -0.1276  0.6845  0.3780  -0.8274   0.0000   0.0000   0.0000   0.5162
  -0.750   0.5088   0.00694   0.00181  -0.1279  0.6806  0.4286  -0.8449   0.0000   0.0000   0.0000   0.5012
  -0.500   0.5374   0.00682   0.00180  -0.1282  0.6772  0.4799  -0.8649   0.0000   0.0000   0.0000   0.4878
  -0.250   0.5661   0.00669   0.00183  -0.1284  0.6734  0.5315  -0.8849   0.0000   0.0000   0.0000   0.4757
   0.000   0.5946   0.00658   0.00184  -0.1286  0.6695  0.5811  -0.9050   0.0000   0.0000   0.0000   0.4647
   0.250   0.6231   0.00652   0.00187  -0.1288  0.6660  0.6264  -0.9250   0.0000   0.0000   0.0000   0.4547
   0.500   0.6516   0.00644   0.00191  -0.1289  0.6616  0.6689  -0.9473   0.0000   0.0000   0.0000   0.4455
   0.750   0.6800   0.00640   0.00194  -0.1291  0.6575  0.7046  -0.9709   0.0000   0.0000   0.0000   0.4370
   1.000   0.7084   0.00637   0.00198  -0.1292  0.6531  0.7361  -0.9946   0.0000   0.0000   0.0000   0.4292
   1.250   0.7365   0.00633   0.00201  -0.1292  0.6484  0.7652  -1.0182   0.0000   0.0000   0.0000   0.4220
   1.500   0.7642   0.00630   0.00205  -0.1291  0.6441  0.7980  -1.0416   0.0000   0.0000   0.0000   0.4152
   1.750   0.7911   0.00622   0.00211  -0.1289  0.6391  0.8421  -1.0666   0.0000   0.0000   0.0000   0.4088
   2.000   0.8152   0.00615   0.00216  -0.1279  0.6343  0.9010  -1.0923   0.0000   0.0000   0.0000   0.4025
   2.250   0.8464   0.00605   0.00218  -0.1284  0.6282  0.9782  -1.1225   0.0000   0.0000   0.0000   0.3970
   2.500   0.8789   0.00611   0.00220  -0.1295  0.6228  1.0001  -1.1544   0.0000   0.0000   0.0000   0.3923
   2.750   0.9073   0.00617   0.00225  -0.1297  0.6168  1.0001  -1.1838   0.0000   0.0000   0.0000   0.3876
   3.000   0.9353   0.00625   0.00230  -0.1299  0.6111  1.0001  -1.2140   0.0000   0.0000   0.0000   0.3831
   3.250   0.9634   0.00633   0.00236  -0.1300  0.6047  1.0001  -1.2480   0.0000   0.0000   0.0000   0.3789
   3.500   0.9912   0.00642   0.00243  -0.1301  0.5980  1.0001  -1.2828   0.0000   0.0000   0.0000   0.3749
   3.750   1.0186   0.00653   0.00251  -0.1301  0.5905  1.0001  -1.3178   0.0000   0.0000   0.0000   0.3710
   4.000   1.0459   0.00665   0.00260  -0.1301  0.5822  1.0001  -1.3530   0.0000   0.0000   0.0000   0.3674
   4.250   1.0732   0.00677   0.00269  -0.1301  0.5736  1.0001  -1.3882   0.0000   0.0000   0.0000   0.3639
   4.500   1.1002   0.00690   0.00280  -0.1301  0.5641  1.0001  -1.4313   0.0000   0.0000   0.0000   0.3606
   4.750   1.1268   0.00705   0.00292  -0.1300  0.5540  1.0001  -1.4754   0.0000   0.0000   0.0000   0.3573
   5.000   1.1532   0.00721   0.00305  -0.1298  0.5432  1.0001  -1.5196   0.0000   0.0000   0.0000   0.3542
   5.250   1.1793   0.00738   0.00319  -0.1296  0.5315  1.0001  -1.5638   0.0000   0.0000   0.0000   0.3512
   5.500   1.2047   0.00758   0.00335  -0.1293  0.5189  1.0001  -1.6077   0.0000   0.0000   0.0000   0.3483
   5.750   1.2296   0.00781   0.00353  -0.1289  0.5057  1.0001  -1.6515   0.0000   0.0000   0.0000   0.3455
   6.000   1.2540   0.00806   0.00373  -0.1285  0.4913  1.0001  -1.7137   0.0000   0.0000   0.0000   0.3427
   6.250   1.2769   0.00838   0.00397  -0.1277  0.4722  1.0001  -1.7756   0.0000   0.0000   0.0000   0.3400
   6.500   1.2980   0.00878   0.00426  -0.1267  0.4481  1.0001  -1.8385   0.0000   0.0000   0.0000   0.3372
   6.750   1.3186   0.00920   0.00458  -0.1256  0.4258  1.0001  -1.9102   0.0000   0.0000   0.0000   0.3345
   7.000   1.3393   0.00960   0.00490  -0.1246  0.4070  1.0001  -1.9890   0.0000   0.0000   0.0000   0.3318
   7.250   1.3596   0.01001   0.00522  -0.1234  0.3883  1.0001  -2.0696   0.0000   0.0000   0.0000   0.3293
   7.500   1.3780   0.01047   0.00560  -0.1220  0.3691  1.0001  -2.1479   0.0000   0.0000   0.0000   0.3266
   7.750   1.3944   0.01097   0.00602  -0.1202  0.3495  1.0001  -2.2294   0.0000   0.0000   0.0000   0.3239
   8.000   1.4086   0.01149   0.00645  -0.1180  0.3306  1.0001  -2.3314   0.0000   0.0000   0.0000   0.3211
   8.500   1.4365   0.01269   0.00750  -0.1139  0.2952  1.0001  -2.5378   0.0000   0.0000   0.0000   0.3158
   8.750   1.4497   0.01339   0.00812  -0.1119  0.2778  1.0001  -2.6410   0.0000   0.0000   0.0000   0.3133
   9.000   1.4622   0.01416   0.00881  -0.1099  0.2591  1.0001  -2.7437   0.0000   0.0000   0.0000   0.3109
   9.250   1.4736   0.01503   0.00960  -0.1079  0.2420  1.0001  -2.8505   0.0000   0.0000   0.0000   0.3085
   9.500   1.4851   0.01595   0.01044  -0.1061  0.2264  1.0001  -2.9593   0.0000   0.0000   0.0000   0.3062
   9.750   1.4973   0.01686   0.01131  -0.1043  0.2111  1.0001  -3.0713   0.0000   0.0000   0.0000   0.3041
  10.000   1.5083   0.01788   0.01225  -0.1026  0.1953  1.0001  -3.1810   0.0000   0.0000   0.0000   0.3020
  10.250   1.5183   0.01900   0.01330  -0.1008  0.1817  1.0001  -3.2891   0.0000   0.0000   0.0000   0.2999
  10.500   1.5290   0.02009   0.01435  -0.0991  0.1696  1.0001  -3.4003   0.0000   0.0000   0.0000   0.2979
  10.750   1.5395   0.02122   0.01544  -0.0975  0.1566  1.0001  -3.5121   0.0000   0.0000   0.0000   0.2959
  11.000   1.5489   0.02244   0.01660  -0.0958  0.1434  1.0001  -3.6215   0.0000   0.0000   0.0000   0.2940
  11.250   1.5570   0.02377   0.01787  -0.0941  0.1324  1.0001  -3.7278   0.0000   0.0000   0.0000   0.2920
  11.500   1.5661   0.02504   0.01912  -0.0925  0.1227  1.0001  -3.8386   0.0000   0.0000   0.0000   0.2902
  11.750   1.5743   0.02639   0.02044  -0.0909  0.1126  1.0001  -3.9472   0.0000   0.0000   0.0000   0.2884
  12.000   1.5816   0.02782   0.02183  -0.0892  0.1021  1.0001  -4.0537   0.0000   0.0000   0.0000   0.2865
  12.250   1.5875   0.02936   0.02333  -0.0874  0.0918  1.0001  -4.1566   0.0000   0.0000   0.0000   0.2847
  12.500   1.5938   0.03091   0.02485  -0.0858  0.0836  1.0001  -4.2613   0.0000   0.0000   0.0000   0.2830
  12.750   1.6004   0.03246   0.02639  -0.0843  0.0769  1.0001  -4.3677   0.0000   0.0000   0.0000   0.2813
  13.000   1.6072   0.03404   0.02797  -0.0828  0.0710  1.0001  -4.4754   0.0000   0.0000   0.0000   0.2797
  13.250   1.6140   0.03566   0.02958  -0.0815  0.0658  1.0001  -4.5841   0.0000   0.0000   0.0000   0.2781
  13.500   1.6207   0.03732   0.03125  -0.0802  0.0611  1.0001  -4.6990   0.0000   0.0000   0.0000   0.2765
  13.750   1.6268   0.03906   0.03300  -0.0789  0.0568  1.0001  -4.8135   0.0000   0.0000   0.0000   0.2750
  14.000   1.6336   0.04077   0.03472  -0.0777  0.0529  1.0001  -4.9315   0.0000   0.0000   0.0000   0.2736
  14.250   1.6401   0.04254   0.03652  -0.0766  0.0493  1.0001  -5.0491   0.0000   0.0000   0.0000   0.2722
  14.500   1.6457   0.04443   0.03843  -0.0755  0.0460  1.0001  -5.1637   0.0000   0.0000   0.0000   0.2708
  15.000   1.6561   0.04839   0.04243  -0.0734  0.0398  1.0001  -5.3913   0.0000   0.0000   0.0000   0.2682
  15.250   1.6602   0.05050   0.04457  -0.0724  0.0370  1.0001  -5.5013   0.0000   0.0000   0.0000   0.2669
  15.500   1.6628   0.05279   0.04689  -0.0715  0.0344  1.0001  -5.6056   0.0000   0.0000   0.0000   0.2657
  15.750   1.6667   0.05502   0.04916  -0.0706  0.0319  1.0001  -5.7263   0.0000   0.0000   0.0000   0.2645
  16.000   1.6684   0.05752   0.05169  -0.0698  0.0297  1.0001  -5.8412   0.0000   0.0000   0.0000   0.2633
  16.250   1.6704   0.06001   0.05422  -0.0691  0.0276  1.0001  -5.9587   0.0000   0.0000   0.0000   0.2623
  16.500   1.6712   0.06267   0.05693  -0.0684  0.0259  1.0001  -6.0700   0.0000   0.0000   0.0000   0.2612
  16.750   1.6724   0.06531   0.05963  -0.0678  0.0245  1.0001  -6.1834   0.0000   0.0000   0.0000   0.2602
  17.250   1.6717   0.07110   0.06554  -0.0667  0.0223  1.0001  -6.3998   0.0000   0.0000   0.0000   0.2584
  17.500   1.6715   0.07405   0.06855  -0.0664  0.0214  1.0001  -6.5147   0.0000   0.0000   0.0000   0.2576
  17.750   1.6694   0.07727   0.07183  -0.0661  0.0207  1.0001  -6.6195   0.0000   0.0000   0.0000   0.2568
  18.250   1.6635   0.08400   0.07871  -0.0658  0.0195  1.0001  -6.8181   0.0000   0.0000   0.0000   0.2555
  18.500   1.6620   0.08724   0.08204  -0.0658  0.0190  1.0001  -6.9261   0.0000   0.0000   0.0000   0.2549
  18.750   1.6591   0.09071   0.08558  -0.0660  0.0185  1.0001  -7.0266   0.0000   0.0000   0.0000   0.2544
  19.000   1.6550   0.09438   0.08933  -0.0662  0.0180  1.0001  -7.1192   0.0000   0.0000   0.0000   0.2540
  19.250   1.6493   0.09833   0.09335  -0.0666  0.0176  1.0001  -7.2009   0.0000   0.0000   0.0000   0.2537
  19.500   1.6408   0.10271   0.09781  -0.0672  0.0173  1.0001  -7.2641   0.0000   0.0000   0.0000   0.2536
  19.750   1.6308   0.10731   0.10251  -0.0679  0.0169  1.0001  -7.3155   0.0000   0.0000   0.0000   0.2537
  20.000   1.6269   0.11110   0.10639  -0.0686  0.0167  1.0001  -7.4049   0.0000   0.0000   0.0000   0.2535


