xflr5 v6.61

 Calculated polar for: QX0026 root

 1 1 Reynolds number fixed          Mach number fixed         

 xtrf =   1.000 (top)        1.000 (bottom)
 Mach =   0.000     Re =     0.400 e 6     Ncrit =   9.000

  alpha     CL        CD       CDp       Cm    Top Xtr Bot Xtr   Cpmin    Chinge    XCp    
 ------- -------- --------- --------- -------- ------- ------- -------- --------- ---------
 -10.000  -0.3338   0.05878   0.05564  -0.0993  0.8402  0.0307  -3.8583   0.0000   0.0000   0.0000  -0.0731
  -9.750  -0.3142   0.05914   0.05598  -0.0995  0.8365  0.0314  -3.6310   0.0000   0.0000   0.0000  -0.0926
  -9.500  -0.2655   0.06721   0.06404  -0.0937  0.8330  0.0347  -3.0131   0.0000   0.0000   0.0000  -0.1312
  -9.250  -0.2514   0.06605   0.06287  -0.0956  0.8291  0.0392  -2.8495   0.0000   0.0000   0.0000  -0.1589
  -9.000  -0.2430   0.06354   0.06035  -0.0978  0.8256  0.0401  -2.7793   0.0000   0.0000   0.0000  -0.1809
  -8.750  -0.2492   0.05534   0.05215  -0.1102  0.8207  0.0449  -2.8974   0.0000   0.0000   0.0000  -0.2185
  -8.500  -0.3465   0.02240   0.01620  -0.1252  0.8151  0.0330  -4.5350   0.0000   0.0000   0.0000  -0.1329
  -8.250  -0.3226   0.02125   0.01474  -0.1251  0.8118  0.0337  -4.3808   0.0000   0.0000   0.0000  -0.1601
  -8.000  -0.2979   0.02014   0.01362  -0.1252  0.8091  0.0347  -4.1917   0.0000   0.0000   0.0000  -0.1932
  -7.750  -0.2719   0.01957   0.01299  -0.1252  0.8061  0.0358  -3.9930   0.0000   0.0000   0.0000  -0.2348
  -7.500  -0.2458   0.01890   0.01220  -0.1252  0.8029  0.0371  -3.8257   0.0000   0.0000   0.0000  -0.2852
  -7.250  -0.2192   0.01827   0.01134  -0.1252  0.8003  0.0382  -3.6677   0.0000   0.0000   0.0000  -0.3487
  -7.000  -0.1935   0.01733   0.01039  -0.1252  0.7979  0.0394  -3.5043   0.0000   0.0000   0.0000  -0.4268
  -6.750  -0.1669   0.01681   0.00986  -0.1252  0.7944  0.0407  -3.3307   0.0000   0.0000   0.0000  -0.5336
  -6.500  -0.1397   0.01634   0.00929  -0.1252  0.7916  0.0424  -3.1655   0.0000   0.0000   0.0000  -0.6842
  -6.250  -0.1129   0.01574   0.00862  -0.1252  0.7894  0.0442  -3.0171   0.0000   0.0000   0.0000  -0.9040
  -6.000  -0.0859   0.01534   0.00824  -0.1253  0.7863  0.0462  -2.8610   0.0000   0.0000   0.0000  -1.2653
  -5.750  -0.0583   0.01498   0.00778  -0.1253  0.7832  0.0483  -2.7143   0.0000   0.0000   0.0000  -1.9786
  -5.500  -0.0315   0.01443   0.00727  -0.1254  0.7806  0.0506  -2.5661   0.0000   0.0000   0.0000  -3.8722
  -5.250  -0.0035   0.01415   0.00690  -0.1254  0.7781  0.0536  -2.4280   0.0000   0.0000   0.0000  -36.4564
  -5.000   0.0234   0.01374   0.00656  -0.1255  0.7747  0.0569  -2.2941   0.0000   0.0000   0.0000   5.7735
  -4.750   0.0512   0.01340   0.00619  -0.1256  0.7719  0.0608  -2.1629   0.0000   0.0000   0.0000   2.7756
  -4.500   0.0795   0.01314   0.00587  -0.1257  0.7696  0.0655  -2.0299   0.0000   0.0000   0.0000   1.8748
  -4.250   0.1070   0.01285   0.00563  -0.1258  0.7664  0.0716  -1.9000   0.0000   0.0000   0.0000   1.4560
  -4.000   0.1348   0.01255   0.00537  -0.1260  0.7633  0.0796  -1.7716   0.0000   0.0000   0.0000   1.2066
  -3.750   0.1632   0.01228   0.00512  -0.1261  0.7608  0.0917  -1.6515   0.0000   0.0000   0.0000   1.0404
  -3.500   0.1915   0.01201   0.00492  -0.1264  0.7584  0.1099  -1.5354   0.0000   0.0000   0.0000   0.9236
  -3.250   0.2191   0.01178   0.00480  -0.1265  0.7549  0.1345  -1.4208   0.0000   0.0000   0.0000   0.8383
  -3.000   0.2474   0.01155   0.00466  -0.1267  0.7520  0.1631  -1.3053   0.0000   0.0000   0.0000   0.7710
  -2.750   0.2761   0.01134   0.00452  -0.1270  0.7497  0.1954  -1.1906   0.0000   0.0000   0.0000   0.7171
  -2.500   0.3039   0.01114   0.00447  -0.1272  0.7465  0.2340  -1.0807   0.0000   0.0000   0.0000   0.6743
  -2.250   0.3319   0.01092   0.00441  -0.1274  0.7432  0.2837  -0.9800   0.0000   0.0000   0.0000   0.6385
  -2.000   0.3603   0.01069   0.00433  -0.1277  0.7405  0.3408  -0.8802   0.0000   0.0000   0.0000   0.6079
  -1.750   0.3885   0.01051   0.00430  -0.1279  0.7375  0.3959  -0.7838   0.0000   0.0000   0.0000   0.5818
  -1.500   0.4160   0.01033   0.00431  -0.1279  0.7337  0.4529  -0.7825   0.0000   0.0000   0.0000   0.5595
  -1.250   0.4441   0.01013   0.00429  -0.1280  0.7307  0.5153  -0.7988   0.0000   0.0000   0.0000   0.5396
  -1.000   0.4724   0.00999   0.00428  -0.1281  0.7282  0.5748  -0.8152   0.0000   0.0000   0.0000   0.5219
  -0.750   0.4991   0.00988   0.00437  -0.1279  0.7242  0.6306  -0.8334   0.0000   0.0000   0.0000   0.5064
  -0.500   0.5267   0.00978   0.00439  -0.1278  0.7211  0.6826  -0.8528   0.0000   0.0000   0.0000   0.4922
   0.000   0.5809   0.00963   0.00441  -0.1272  0.7135  0.7623  -0.8912   0.0000   0.0000   0.0000   0.4677
   0.250   0.6076   0.00950   0.00437  -0.1267  0.7099  0.8014  -0.9104   0.0000   0.0000   0.0000   0.4568
   0.500   0.6328   0.00942   0.00439  -0.1259  0.7063  0.8444  -0.9311   0.0000   0.0000   0.0000   0.4468
   0.750   0.6562   0.00933   0.00442  -0.1246  0.7022  0.8949  -0.9517   0.0000   0.0000   0.0000   0.4374
   1.000   0.6892   0.00922   0.00433  -0.1253  0.6989  0.9566  -0.9781   0.0000   0.0000   0.0000   0.4289
   1.250   0.7300   0.00920   0.00429  -0.1282  0.6946  1.0001  -1.0087   0.0000   0.0000   0.0000   0.4224
   1.500   0.7580   0.00923   0.00427  -0.1283  0.6901  1.0001  -1.0321   0.0000   0.0000   0.0000   0.4157
   1.750   0.7867   0.00926   0.00423  -0.1285  0.6862  1.0001  -1.0583   0.0000   0.0000   0.0000   0.4094
   2.000   0.8139   0.00932   0.00429  -0.1285  0.6812  1.0001  -1.0855   0.0000   0.0000   0.0000   0.4036
   2.250   0.8430   0.00935   0.00424  -0.1288  0.6773  1.0001  -1.1143   0.0000   0.0000   0.0000   0.3982
   2.500   0.8699   0.00942   0.00432  -0.1287  0.6718  1.0001  -1.1417   0.0000   0.0000   0.0000   0.3930
   2.750   0.8985   0.00945   0.00430  -0.1289  0.6673  1.0001  -1.1713   0.0000   0.0000   0.0000   0.3882
   3.000   0.9255   0.00952   0.00438  -0.1288  0.6619  1.0001  -1.2012   0.0000   0.0000   0.0000   0.3836
   3.250   0.9538   0.00955   0.00436  -0.1289  0.6566  1.0001  -1.2354   0.0000   0.0000   0.0000   0.3792
   3.500   0.9804   0.00961   0.00443  -0.1287  0.6500  1.0001  -1.2685   0.0000   0.0000   0.0000   0.3751
   3.750   1.0086   0.00966   0.00443  -0.1288  0.6448  1.0001  -1.3042   0.0000   0.0000   0.0000   0.3712
   4.000   1.0350   0.00974   0.00455  -0.1286  0.6382  1.0001  -1.3384   0.0000   0.0000   0.0000   0.3674
   4.250   1.0623   0.00982   0.00460  -0.1286  0.6324  1.0001  -1.3736   0.0000   0.0000   0.0000   0.3638
   4.500   1.0889   0.00989   0.00468  -0.1284  0.6252  1.0001  -1.4155   0.0000   0.0000   0.0000   0.3604
   4.750   1.1151   0.00998   0.00478  -0.1282  0.6176  1.0001  -1.4589   0.0000   0.0000   0.0000   0.3571
   5.000   1.1415   0.01007   0.00487  -0.1280  0.6102  1.0001  -1.5030   0.0000   0.0000   0.0000   0.3539
   5.250   1.1676   0.01017   0.00495  -0.1277  0.6019  1.0001  -1.5472   0.0000   0.0000   0.0000   0.3508
   5.500   1.1928   0.01029   0.00506  -0.1273  0.5922  1.0001  -1.5908   0.0000   0.0000   0.0000   0.3478
   5.750   1.2177   0.01043   0.00520  -0.1268  0.5820  1.0001  -1.6346   0.0000   0.0000   0.0000   0.3449
   6.000   1.2422   0.01060   0.00537  -0.1263  0.5713  1.0001  -1.6935   0.0000   0.0000   0.0000   0.3420
   6.250   1.2663   0.01078   0.00555  -0.1257  0.5604  1.0001  -1.7569   0.0000   0.0000   0.0000   0.3393
   6.500   1.2899   0.01099   0.00575  -0.1251  0.5491  1.0001  -1.8223   0.0000   0.0000   0.0000   0.3366
   6.750   1.3127   0.01123   0.00598  -0.1243  0.5367  1.0001  -1.8945   0.0000   0.0000   0.0000   0.3339
   7.000   1.3343   0.01149   0.00624  -0.1233  0.5221  1.0001  -1.9724   0.0000   0.0000   0.0000   0.3313
   7.250   1.3536   0.01183   0.00652  -0.1219  0.5050  1.0001  -2.0511   0.0000   0.0000   0.0000   0.3286
   7.500   1.3712   0.01224   0.00686  -0.1202  0.4849  1.0001  -2.1278   0.0000   0.0000   0.0000   0.3258
   7.750   1.3876   0.01268   0.00726  -0.1184  0.4655  1.0001  -2.2040   0.0000   0.0000   0.0000   0.3231
   8.000   1.4019   0.01319   0.00770  -0.1162  0.4476  1.0001  -2.3013   0.0000   0.0000   0.0000   0.3202
   8.250   1.4132   0.01374   0.00819  -0.1135  0.4300  1.0001  -2.3970   0.0000   0.0000   0.0000   0.3173
   8.500   1.4244   0.01439   0.00878  -0.1110  0.4116  1.0001  -2.4934   0.0000   0.0000   0.0000   0.3145
   8.750   1.4341   0.01516   0.00949  -0.1084  0.3927  1.0001  -2.5870   0.0000   0.0000   0.0000   0.3117
   9.000   1.4425   0.01606   0.01032  -0.1058  0.3744  1.0001  -2.6784   0.0000   0.0000   0.0000   0.3091
   9.250   1.4521   0.01699   0.01119  -0.1036  0.3565  1.0001  -2.7734   0.0000   0.0000   0.0000   0.3066
   9.500   1.4614   0.01799   0.01215  -0.1014  0.3394  1.0001  -2.8693   0.0000   0.0000   0.0000   0.3042
  10.000   1.4783   0.02027   0.01433  -0.0973  0.3055  1.0001  -3.0692   0.0000   0.0000   0.0000   0.2997
  10.250   1.4855   0.02156   0.01556  -0.0953  0.2896  1.0001  -3.1671   0.0000   0.0000   0.0000   0.2976
  10.500   1.4929   0.02288   0.01684  -0.0934  0.2729  1.0001  -3.2661   0.0000   0.0000   0.0000   0.2955
  10.750   1.4998   0.02427   0.01818  -0.0915  0.2557  1.0001  -3.3646   0.0000   0.0000   0.0000   0.2935
  11.000   1.5051   0.02580   0.01965  -0.0895  0.2397  1.0001  -3.4591   0.0000   0.0000   0.0000   0.2915
  11.250   1.5095   0.02743   0.02121  -0.0876  0.2247  1.0001  -3.5512   0.0000   0.0000   0.0000   0.2896
  11.500   1.5159   0.02894   0.02269  -0.0859  0.2088  1.0001  -3.6502   0.0000   0.0000   0.0000   0.2877
  11.750   1.5207   0.03060   0.02429  -0.0841  0.1936  1.0001  -3.7449   0.0000   0.0000   0.0000   0.2859
  12.000   1.5239   0.03240   0.02604  -0.0823  0.1809  1.0001  -3.8349   0.0000   0.0000   0.0000   0.2840
  12.250   1.5290   0.03408   0.02771  -0.0806  0.1684  1.0001  -3.9314   0.0000   0.0000   0.0000   0.2823
  12.750   1.5378   0.03773   0.03130  -0.0776  0.1433  1.0001  -4.1210   0.0000   0.0000   0.0000   0.2790
  13.000   1.5401   0.03980   0.03333  -0.0760  0.1325  1.0001  -4.2092   0.0000   0.0000   0.0000   0.2774
  13.250   1.5435   0.04181   0.03533  -0.0747  0.1221  1.0001  -4.3013   0.0000   0.0000   0.0000   0.2759
  13.500   1.5461   0.04395   0.03747  -0.0733  0.1123  1.0001  -4.3906   0.0000   0.0000   0.0000   0.2744
  13.750   1.5490   0.04613   0.03964  -0.0721  0.1029  1.0001  -4.4833   0.0000   0.0000   0.0000   0.2730
  14.000   1.5514   0.04839   0.04190  -0.0709  0.0943  1.0001  -4.5784   0.0000   0.0000   0.0000   0.2716
  14.250   1.5526   0.05080   0.04430  -0.0698  0.0870  1.0001  -4.6693   0.0000   0.0000   0.0000   0.2703
  14.500   1.5535   0.05331   0.04682  -0.0687  0.0808  1.0001  -4.7587   0.0000   0.0000   0.0000   0.2691
  14.750   1.5543   0.05588   0.04941  -0.0678  0.0752  1.0001  -4.8478   0.0000   0.0000   0.0000   0.2679
  15.000   1.5550   0.05851   0.05208  -0.0669  0.0703  1.0001  -4.9361   0.0000   0.0000   0.0000   0.2667
  15.250   1.5551   0.06126   0.05486  -0.0662  0.0658  1.0001  -5.0216   0.0000   0.0000   0.0000   0.2657
  15.500   1.5535   0.06422   0.05785  -0.0654  0.0620  1.0001  -5.1007   0.0000   0.0000   0.0000   0.2647
  15.750   1.5540   0.06702   0.06070  -0.0649  0.0581  1.0001  -5.1870   0.0000   0.0000   0.0000   0.2637
  16.000   1.5533   0.07002   0.06376  -0.0644  0.0547  1.0001  -5.2685   0.0000   0.0000   0.0000   0.2628
  16.250   1.5493   0.07346   0.06723  -0.0640  0.0519  1.0001  -5.3411   0.0000   0.0000   0.0000   0.2621
  16.500   1.5493   0.07648   0.07034  -0.0637  0.0487  1.0001  -5.4318   0.0000   0.0000   0.0000   0.2613
  16.750   1.5452   0.08002   0.07393  -0.0635  0.0462  1.0001  -5.5079   0.0000   0.0000   0.0000   0.2607
  17.000   1.5424   0.08345   0.07743  -0.0634  0.0437  1.0001  -5.5900   0.0000   0.0000   0.0000   0.2601
  17.250   1.5371   0.08727   0.08131  -0.0634  0.0417  1.0001  -5.6578   0.0000   0.0000   0.0000   0.2597
  17.500   1.5339   0.09088   0.08501  -0.0635  0.0397  1.0001  -5.7352   0.0000   0.0000   0.0000   0.2592
  17.750   1.5252   0.09526   0.08941  -0.0639  0.0382  1.0001  -5.7846   0.0000   0.0000   0.0000   0.2591
  18.000   1.5232   0.09879   0.09307  -0.0642  0.0365  1.0001  -5.8641   0.0000   0.0000   0.0000   0.2587
  18.250   1.5182   0.10275   0.09709  -0.0647  0.0351  1.0001  -5.9300   0.0000   0.0000   0.0000   0.2586
  18.500   1.5091   0.10728   0.10165  -0.0654  0.0341  1.0001  -5.9751   0.0000   0.0000   0.0000   0.2587
  18.750   1.5069   0.11094   0.10544  -0.0661  0.0329  1.0001  -6.0575   0.0000   0.0000   0.0000   0.2586
  19.000   1.5031   0.11485   0.10944  -0.0669  0.0318  1.0001  -6.1318   0.0000   0.0000   0.0000   0.2586
  19.250   1.4982   0.11894   0.11358  -0.0679  0.0310  1.0001  -6.1994   0.0000   0.0000   0.0000   0.2588
  19.500   1.4920   0.12314   0.11779  -0.0689  0.0302  1.0001  -6.2565   0.0000   0.0000   0.0000   0.2590
  19.750   1.4904   0.12682   0.12160  -0.0700  0.0295  1.0001  -6.3364   0.0000   0.0000   0.0000   0.2591
  20.000   1.4883   0.13053   0.12541  -0.0711  0.0287  1.0001  -6.4139   0.0000   0.0000   0.0000   0.2593


