xflr5 v6.61

 Calculated polar for: QX0026 root

 1 1 Reynolds number fixed          Mach number fixed         

 xtrf =   1.000 (top)        1.000 (bottom)
 Mach =   0.000     Re =     0.580 e 6     Ncrit =   9.000

  alpha     CL        CD       CDp       Cm    Top Xtr Bot Xtr   Cpmin    Chinge    XCp    
 ------- -------- --------- --------- -------- ------- ------- -------- --------- ---------
 -10.000  -0.5066   0.02276   0.01738  -0.1228  0.8102  0.0244  -5.9996   0.0000   0.0000   0.0000  -0.0112
  -9.750  -0.4837   0.02176   0.01613  -0.1227  0.8074  0.0250  -5.8122   0.0000   0.0000   0.0000  -0.0227
  -9.500  -0.4611   0.02053   0.01472  -0.1227  0.8040  0.0255  -5.6311   0.0000   0.0000   0.0000  -0.0353
  -9.250  -0.4372   0.01963   0.01378  -0.1228  0.8010  0.0262  -5.4162   0.0000   0.0000   0.0000  -0.0502
  -8.750  -0.3857   0.01855   0.01256  -0.1229  0.7953  0.0277  -4.9721   0.0000   0.0000   0.0000  -0.0889
  -8.500  -0.3598   0.01790   0.01178  -0.1229  0.7923  0.0285  -4.7683   0.0000   0.0000   0.0000  -0.1124
  -8.250  -0.3334   0.01735   0.01107  -0.1229  0.7898  0.0291  -4.5652   0.0000   0.0000   0.0000  -0.1402
  -8.000  -0.3085   0.01640   0.01005  -0.1229  0.7870  0.0300  -4.3759   0.0000   0.0000   0.0000  -0.1708
  -7.750  -0.2819   0.01590   0.00955  -0.1230  0.7841  0.0308  -4.1735   0.0000   0.0000   0.0000  -0.2097
  -7.500  -0.2547   0.01551   0.00909  -0.1231  0.7815  0.0319  -3.9787   0.0000   0.0000   0.0000  -0.2580
  -7.250  -0.2273   0.01512   0.00859  -0.1232  0.7792  0.0331  -3.7927   0.0000   0.0000   0.0000  -0.3183
  -7.000  -0.2007   0.01453   0.00794  -0.1232  0.7762  0.0341  -3.6186   0.0000   0.0000   0.0000  -0.3925
  -6.750  -0.1739   0.01402   0.00745  -0.1233  0.7734  0.0353  -3.4358   0.0000   0.0000   0.0000  -0.4907
  -6.500  -0.1462   0.01368   0.00705  -0.1234  0.7710  0.0366  -3.2623   0.0000   0.0000   0.0000  -0.6298
  -6.250  -0.1181   0.01340   0.00668  -0.1235  0.7687  0.0381  -3.0993   0.0000   0.0000   0.0000  -0.8377
  -6.000  -0.0912   0.01290   0.00621  -0.1236  0.7656  0.0399  -2.9405   0.0000   0.0000   0.0000  -1.1570
  -5.750  -0.0632   0.01263   0.00590  -0.1237  0.7628  0.0420  -2.7772   0.0000   0.0000   0.0000  -1.7807
  -5.500  -0.0353   0.01227   0.00549  -0.1239  0.7604  0.0441  -2.6241   0.0000   0.0000   0.0000  -3.3798
  -5.250  -0.0072   0.01199   0.00521  -0.1240  0.7579  0.0465  -2.4796   0.0000   0.0000   0.0000  -17.4365
  -5.000   0.0208   0.01170   0.00490  -0.1242  0.7548  0.0492  -2.3407   0.0000   0.0000   0.0000   6.4056
  -4.750   0.0492   0.01146   0.00465  -0.1244  0.7521  0.0527  -2.1985   0.0000   0.0000   0.0000   2.8531
  -4.500   0.0776   0.01120   0.00438  -0.1246  0.7498  0.0568  -2.0597   0.0000   0.0000   0.0000   1.8985
  -4.250   0.1060   0.01097   0.00416  -0.1247  0.7471  0.0618  -1.9240   0.0000   0.0000   0.0000   1.4571
  -4.000   0.1343   0.01074   0.00395  -0.1249  0.7442  0.0686  -1.7899   0.0000   0.0000   0.0000   1.2019
  -3.750   0.1630   0.01053   0.00375  -0.1252  0.7415  0.0788  -1.6655   0.0000   0.0000   0.0000   1.0347
  -3.500   0.1917   0.01030   0.00357  -0.1254  0.7393  0.0945  -1.5450   0.0000   0.0000   0.0000   0.9174
  -3.250   0.2200   0.01009   0.00346  -0.1256  0.7364  0.1160  -1.4264   0.0000   0.0000   0.0000   0.8315
  -3.000   0.2485   0.00990   0.00335  -0.1259  0.7334  0.1399  -1.3089   0.0000   0.0000   0.0000   0.7649
  -2.750   0.2773   0.00972   0.00324  -0.1262  0.7308  0.1661  -1.1928   0.0000   0.0000   0.0000   0.7117
  -2.500   0.3062   0.00955   0.00314  -0.1265  0.7284  0.1962  -1.0789   0.0000   0.0000   0.0000   0.6684
  -2.250   0.3343   0.00936   0.00308  -0.1267  0.7249  0.2319  -0.9772   0.0000   0.0000   0.0000   0.6332
  -2.000   0.3628   0.00914   0.00301  -0.1270  0.7217  0.2786  -0.8771   0.0000   0.0000   0.0000   0.6032
  -1.750   0.3916   0.00896   0.00295  -0.1273  0.7190  0.3312  -0.7794   0.0000   0.0000   0.0000   0.5774
  -1.500   0.4199   0.00880   0.00294  -0.1275  0.7157  0.3804  -0.7891   0.0000   0.0000   0.0000   0.5553
  -1.250   0.4483   0.00863   0.00293  -0.1277  0.7124  0.4328  -0.8055   0.0000   0.0000   0.0000   0.5359
  -1.000   0.4768   0.00846   0.00291  -0.1279  0.7096  0.4914  -0.8220   0.0000   0.0000   0.0000   0.5188
  -0.500   0.5329   0.00818   0.00294  -0.1281  0.7024  0.6015  -0.8596   0.0000   0.0000   0.0000   0.4898
  -0.250   0.5611   0.00806   0.00294  -0.1281  0.6989  0.6537  -0.8795   0.0000   0.0000   0.0000   0.4773
   0.000   0.5889   0.00799   0.00297  -0.1281  0.6951  0.6961  -0.8991   0.0000   0.0000   0.0000   0.4660
   0.250   0.6167   0.00793   0.00300  -0.1280  0.6912  0.7320  -0.9188   0.0000   0.0000   0.0000   0.4557
   0.500   0.6446   0.00787   0.00299  -0.1279  0.6880  0.7664  -0.9408   0.0000   0.0000   0.0000   0.4462
   0.750   0.6713   0.00780   0.00304  -0.1276  0.6837  0.8025  -0.9634   0.0000   0.0000   0.0000   0.4374
   1.000   0.6973   0.00771   0.00306  -0.1270  0.6795  0.8441  -0.9857   0.0000   0.0000   0.0000   0.4292
   1.250   0.7215   0.00762   0.00307  -0.1260  0.6758  0.8971  -1.0072   0.0000   0.0000   0.0000   0.4212
   1.500   0.7529   0.00752   0.00307  -0.1264  0.6710  0.9652  -1.0327   0.0000   0.0000   0.0000   0.4143
   1.750   0.7905   0.00753   0.00302  -0.1286  0.6668  1.0001  -1.0639   0.0000   0.0000   0.0000   0.4087
   2.000   0.8182   0.00758   0.00306  -0.1287  0.6618  1.0001  -1.0915   0.0000   0.0000   0.0000   0.4029
   2.250   0.8465   0.00763   0.00308  -0.1288  0.6573  1.0001  -1.1197   0.0000   0.0000   0.0000   0.3975
   2.500   0.8744   0.00770   0.00312  -0.1289  0.6524  1.0001  -1.1482   0.0000   0.0000   0.0000   0.3925
   2.750   0.9022   0.00775   0.00314  -0.1290  0.6468  1.0001  -1.1773   0.0000   0.0000   0.0000   0.3876
   3.000   0.9298   0.00781   0.00320  -0.1290  0.6407  1.0001  -1.2074   0.0000   0.0000   0.0000   0.3831
   3.250   0.9577   0.00788   0.00323  -0.1291  0.6352  1.0001  -1.2413   0.0000   0.0000   0.0000   0.3788
   3.500   0.9852   0.00795   0.00331  -0.1291  0.6293  1.0001  -1.2754   0.0000   0.0000   0.0000   0.3748
   3.750   1.0128   0.00804   0.00337  -0.1292  0.6239  1.0001  -1.3105   0.0000   0.0000   0.0000   0.3709
   4.000   1.0400   0.00811   0.00346  -0.1291  0.6166  1.0001  -1.3454   0.0000   0.0000   0.0000   0.3672
   4.250   1.0670   0.00821   0.00354  -0.1291  0.6095  1.0001  -1.3805   0.0000   0.0000   0.0000   0.3637
   4.750   1.1204   0.00843   0.00373  -0.1288  0.5936  1.0001  -1.4669   0.0000   0.0000   0.0000   0.3570
   5.000   1.1465   0.00856   0.00384  -0.1286  0.5843  1.0001  -1.5108   0.0000   0.0000   0.0000   0.3538
   5.250   1.1724   0.00870   0.00398  -0.1283  0.5746  1.0001  -1.5547   0.0000   0.0000   0.0000   0.3508
   5.500   1.1979   0.00887   0.00412  -0.1280  0.5645  1.0001  -1.5986   0.0000   0.0000   0.0000   0.3479
   5.750   1.2230   0.00905   0.00428  -0.1276  0.5536  1.0001  -1.6426   0.0000   0.0000   0.0000   0.3450
   6.000   1.2478   0.00924   0.00447  -0.1272  0.5424  1.0001  -1.7034   0.0000   0.0000   0.0000   0.3422
   6.250   1.2719   0.00945   0.00466  -0.1266  0.5300  1.0001  -1.7669   0.0000   0.0000   0.0000   0.3395
   6.500   1.2949   0.00971   0.00488  -0.1259  0.5165  1.0001  -1.8319   0.0000   0.0000   0.0000   0.3368
   6.750   1.3169   0.01001   0.00514  -0.1250  0.5000  1.0001  -1.9046   0.0000   0.0000   0.0000   0.3341
   7.000   1.3364   0.01040   0.00544  -0.1237  0.4792  1.0001  -1.9804   0.0000   0.0000   0.0000   0.3314
   7.250   1.3547   0.01084   0.00579  -0.1221  0.4580  1.0001  -2.0575   0.0000   0.0000   0.0000   0.3286
   7.750   1.3890   0.01177   0.00659  -0.1188  0.4209  1.0001  -2.2118   0.0000   0.0000   0.0000   0.3232
   8.000   1.4021   0.01229   0.00705  -0.1164  0.4027  1.0001  -2.3090   0.0000   0.0000   0.0000   0.3203
   8.250   1.4137   0.01293   0.00761  -0.1139  0.3832  1.0001  -2.4056   0.0000   0.0000   0.0000   0.3175
   8.500   1.4249   0.01366   0.00825  -0.1115  0.3645  1.0001  -2.5020   0.0000   0.0000   0.0000   0.3147
   8.750   1.4371   0.01439   0.00893  -0.1094  0.3465  1.0001  -2.6020   0.0000   0.0000   0.0000   0.3122
   9.000   1.4488   0.01520   0.00968  -0.1073  0.3292  1.0001  -2.7020   0.0000   0.0000   0.0000   0.3098
   9.250   1.4591   0.01614   0.01055  -0.1052  0.3117  1.0001  -2.7992   0.0000   0.0000   0.0000   0.3074
   9.500   1.4695   0.01713   0.01148  -0.1032  0.2946  1.0001  -2.9031   0.0000   0.0000   0.0000   0.3051
   9.750   1.4798   0.01818   0.01248  -0.1014  0.2780  1.0001  -3.0084   0.0000   0.0000   0.0000   0.3029
  10.000   1.4892   0.01932   0.01355  -0.0995  0.2601  1.0001  -3.1124   0.0000   0.0000   0.0000   0.3007
  10.250   1.4968   0.02061   0.01475  -0.0975  0.2429  1.0001  -3.2123   0.0000   0.0000   0.0000   0.2986
  10.500   1.5053   0.02188   0.01597  -0.0957  0.2274  1.0001  -3.3152   0.0000   0.0000   0.0000   0.2966
  10.750   1.5138   0.02317   0.01721  -0.0939  0.2120  1.0001  -3.4194   0.0000   0.0000   0.0000   0.2946
  11.000   1.5210   0.02456   0.01854  -0.0921  0.1958  1.0001  -3.5207   0.0000   0.0000   0.0000   0.2926
  11.250   1.5275   0.02604   0.01995  -0.0903  0.1822  1.0001  -3.6204   0.0000   0.0000   0.0000   0.2907
  11.500   1.5346   0.02748   0.02136  -0.0886  0.1707  1.0001  -3.7227   0.0000   0.0000   0.0000   0.2888
  11.750   1.5422   0.02890   0.02276  -0.0870  0.1580  1.0001  -3.8275   0.0000   0.0000   0.0000   0.2870
  12.000   1.5483   0.03046   0.02428  -0.0853  0.1454  1.0001  -3.9283   0.0000   0.0000   0.0000   0.2852
  12.250   1.5533   0.03213   0.02590  -0.0836  0.1341  1.0001  -4.0260   0.0000   0.0000   0.0000   0.2834
  12.500   1.5581   0.03384   0.02759  -0.0820  0.1242  1.0001  -4.1234   0.0000   0.0000   0.0000   0.2817
  12.750   1.5636   0.03555   0.02928  -0.0805  0.1142  1.0001  -4.2238   0.0000   0.0000   0.0000   0.2800
  13.250   1.5727   0.03925   0.03294  -0.0776  0.0947  1.0001  -4.4195   0.0000   0.0000   0.0000   0.2769
  13.500   1.5762   0.04125   0.03492  -0.0762  0.0866  1.0001  -4.5142   0.0000   0.0000   0.0000   0.2754
  13.750   1.5794   0.04333   0.03698  -0.0749  0.0797  1.0001  -4.6148   0.0000   0.0000   0.0000   0.2739
  14.000   1.5830   0.04542   0.03909  -0.0737  0.0738  1.0001  -4.7168   0.0000   0.0000   0.0000   0.2725
  14.250   1.5868   0.04754   0.04122  -0.0725  0.0685  1.0001  -4.8202   0.0000   0.0000   0.0000   0.2711
  14.500   1.5904   0.04970   0.04341  -0.0715  0.0638  1.0001  -4.9232   0.0000   0.0000   0.0000   0.2698
  14.750   1.5936   0.05194   0.04568  -0.0705  0.0596  1.0001  -5.0247   0.0000   0.0000   0.0000   0.2685
  15.000   1.5960   0.05432   0.04808  -0.0696  0.0559  1.0001  -5.1231   0.0000   0.0000   0.0000   0.2673
  15.250   1.5977   0.05681   0.05061  -0.0687  0.0523  1.0001  -5.2189   0.0000   0.0000   0.0000   0.2662
  15.500   1.6006   0.05922   0.05307  -0.0680  0.0489  1.0001  -5.3194   0.0000   0.0000   0.0000   0.2651
  15.750   1.6018   0.06186   0.05575  -0.0673  0.0458  1.0001  -5.4122   0.0000   0.0000   0.0000   0.2640
  16.000   1.6015   0.06468   0.05860  -0.0666  0.0430  1.0001  -5.5062   0.0000   0.0000   0.0000   0.2630
  16.250   1.6025   0.06742   0.06140  -0.0660  0.0402  1.0001  -5.6106   0.0000   0.0000   0.0000   0.2621
  16.500   1.5999   0.07063   0.06466  -0.0655  0.0380  1.0001  -5.6997   0.0000   0.0000   0.0000   0.2612
  16.750   1.5997   0.07361   0.06771  -0.0652  0.0357  1.0001  -5.7996   0.0000   0.0000   0.0000   0.2604
  17.000   1.5949   0.07720   0.07134  -0.0649  0.0339  1.0001  -5.8771   0.0000   0.0000   0.0000   0.2597
  17.250   1.5940   0.08033   0.07457  -0.0647  0.0321  1.0001  -5.9725   0.0000   0.0000   0.0000   0.2590
  17.500   1.5883   0.08411   0.07839  -0.0646  0.0307  1.0001  -6.0450   0.0000   0.0000   0.0000   0.2585
  17.750   1.5841   0.08778   0.08216  -0.0647  0.0294  1.0001  -6.1218   0.0000   0.0000   0.0000   0.2580
  18.000   1.5811   0.09135   0.08581  -0.0648  0.0283  1.0001  -6.2096   0.0000   0.0000   0.0000   0.2576
  18.250   1.5752   0.09536   0.08989  -0.0651  0.0274  1.0001  -6.2835   0.0000   0.0000   0.0000   0.2573
  18.500   1.5649   0.10002   0.09462  -0.0657  0.0267  1.0001  -6.3308   0.0000   0.0000   0.0000   0.2573
  18.750   1.5609   0.10385   0.09855  -0.0662  0.0260  1.0001  -6.4110   0.0000   0.0000   0.0000   0.2571
  19.000   1.5564   0.10777   0.10257  -0.0668  0.0253  1.0001  -6.4879   0.0000   0.0000   0.0000   0.2570
  19.250   1.5513   0.11183   0.10673  -0.0676  0.0247  1.0001  -6.5606   0.0000   0.0000   0.0000   0.2570
  19.500   1.5449   0.11613   0.11110  -0.0686  0.0241  1.0001  -6.6252   0.0000   0.0000   0.0000   0.2572
  19.750   1.5367   0.12075   0.11579  -0.0698  0.0236  1.0001  -6.6759   0.0000   0.0000   0.0000   0.2575


