xflr5 v6.61

 Calculated polar for: QX0026 root

 1 1 Reynolds number fixed          Mach number fixed         

 xtrf =   1.000 (top)        1.000 (bottom)
 Mach =   0.000     Re =     0.840 e 6     Ncrit =   9.000

  alpha     CL        CD       CDp       Cm    Top Xtr Bot Xtr   Cpmin    Chinge    XCp    
 ------- -------- --------- --------- -------- ------- ------- -------- --------- ---------
 -10.000  -0.5255   0.01821   0.01273  -0.1210  0.7900  0.0214  -6.3069   0.0000   0.0000   0.0000   0.0013
  -9.750  -0.5028   0.01709   0.01150  -0.1209  0.7872  0.0220  -6.1050   0.0000   0.0000   0.0000  -0.0091
  -9.500  -0.4774   0.01647   0.01084  -0.1210  0.7842  0.0225  -5.8700   0.0000   0.0000   0.0000  -0.0222
  -9.250  -0.4510   0.01603   0.01035  -0.1211  0.7815  0.0231  -5.6289   0.0000   0.0000   0.0000  -0.0375
  -9.000  -0.4243   0.01566   0.00991  -0.1212  0.7791  0.0237  -5.3903   0.0000   0.0000   0.0000  -0.0550
  -8.750  -0.3972   0.01527   0.00945  -0.1213  0.7762  0.0244  -5.1574   0.0000   0.0000   0.0000  -0.0752
  -8.500  -0.3699   0.01490   0.00901  -0.1214  0.7734  0.0250  -4.9288   0.0000   0.0000   0.0000  -0.0985
  -8.250  -0.3441   0.01423   0.00825  -0.1214  0.7709  0.0257  -4.7202   0.0000   0.0000   0.0000  -0.1238
  -8.000  -0.3175   0.01374   0.00772  -0.1215  0.7686  0.0264  -4.5017   0.0000   0.0000   0.0000  -0.1544
  -7.750  -0.2900   0.01339   0.00735  -0.1217  0.7658  0.0272  -4.2945   0.0000   0.0000   0.0000  -0.1923
  -7.500  -0.2622   0.01307   0.00699  -0.1218  0.7631  0.0281  -4.0915   0.0000   0.0000   0.0000  -0.2385
  -7.250  -0.2341   0.01283   0.00667  -0.1219  0.7607  0.0290  -3.8910   0.0000   0.0000   0.0000  -0.2964
  -7.000  -0.2072   0.01233   0.00612  -0.1220  0.7584  0.0301  -3.7052   0.0000   0.0000   0.0000  -0.3666
  -6.750  -0.1793   0.01200   0.00579  -0.1222  0.7556  0.0312  -3.5119   0.0000   0.0000   0.0000  -0.4620
  -6.500  -0.1511   0.01173   0.00549  -0.1224  0.7530  0.0324  -3.3360   0.0000   0.0000   0.0000  -0.5942
  -6.250  -0.1226   0.01152   0.00522  -0.1225  0.7506  0.0335  -3.1631   0.0000   0.0000   0.0000  -0.7893
  -6.000  -0.0950   0.01112   0.00480  -0.1227  0.7482  0.0352  -2.9982   0.0000   0.0000   0.0000  -1.0906
  -5.750  -0.0665   0.01090   0.00457  -0.1229  0.7453  0.0370  -2.8275   0.0000   0.0000   0.0000  -1.6642
  -5.500  -0.0381   0.01065   0.00429  -0.1231  0.7426  0.0390  -2.6697   0.0000   0.0000   0.0000  -3.0904
  -5.250  -0.0097   0.01041   0.00403  -0.1233  0.7402  0.0412  -2.5193   0.0000   0.0000   0.0000  -12.9092
  -5.000   0.0191   0.01025   0.00382  -0.1235  0.7378  0.0434  -2.3719   0.0000   0.0000   0.0000   6.9186
  -4.750   0.0476   0.00999   0.00359  -0.1237  0.7350  0.0464  -2.2270   0.0000   0.0000   0.0000   2.9251
  -4.500   0.0763   0.00979   0.00338  -0.1239  0.7324  0.0498  -2.0842   0.0000   0.0000   0.0000   1.9176
  -4.250   0.1052   0.00963   0.00320  -0.1241  0.7300  0.0541  -1.9424   0.0000   0.0000   0.0000   1.4600
  -4.000   0.1339   0.00946   0.00304  -0.1244  0.7276  0.0599  -1.8042   0.0000   0.0000   0.0000   1.2002
  -3.750   0.1626   0.00925   0.00288  -0.1246  0.7248  0.0681  -1.6766   0.0000   0.0000   0.0000   1.0326
  -3.500   0.1914   0.00905   0.00273  -0.1249  0.7221  0.0809  -1.5535   0.0000   0.0000   0.0000   0.9152
  -3.250   0.2202   0.00888   0.00261  -0.1251  0.7196  0.0989  -1.4321   0.0000   0.0000   0.0000   0.8284
  -3.000   0.2491   0.00872   0.00251  -0.1254  0.7171  0.1196  -1.3127   0.0000   0.0000   0.0000   0.7617
  -2.500   0.3067   0.00840   0.00234  -0.1260  0.7109  0.1650  -1.0811   0.0000   0.0000   0.0000   0.6659
  -2.250   0.3356   0.00826   0.00226  -0.1263  0.7082  0.1933  -0.9764   0.0000   0.0000   0.0000   0.6303
  -2.000   0.3643   0.00809   0.00221  -0.1265  0.7050  0.2260  -0.8756   0.0000   0.0000   0.0000   0.6005
  -1.750   0.3930   0.00791   0.00216  -0.1268  0.7019  0.2687  -0.7778   0.0000   0.0000   0.0000   0.5750
  -1.500   0.4218   0.00774   0.00212  -0.1271  0.6991  0.3176  -0.7928   0.0000   0.0000   0.0000   0.5530
  -1.250   0.4505   0.00761   0.00211  -0.1274  0.6961  0.3630  -0.8094   0.0000   0.0000   0.0000   0.5338
  -1.000   0.4791   0.00745   0.00209  -0.1277  0.6922  0.4113  -0.8260   0.0000   0.0000   0.0000   0.5168
  -0.750   0.5077   0.00730   0.00207  -0.1279  0.6887  0.4651  -0.8436   0.0000   0.0000   0.0000   0.5018
  -0.500   0.5362   0.00717   0.00208  -0.1281  0.6850  0.5188  -0.8635   0.0000   0.0000   0.0000   0.4883
  -0.250   0.5646   0.00704   0.00210  -0.1283  0.6811  0.5701  -0.8835   0.0000   0.0000   0.0000   0.4761
   0.000   0.5930   0.00695   0.00211  -0.1285  0.6777  0.6194  -0.9035   0.0000   0.0000   0.0000   0.4651
   0.250   0.6214   0.00687   0.00216  -0.1286  0.6738  0.6644  -0.9234   0.0000   0.0000   0.0000   0.4550
   0.500   0.6497   0.00682   0.00219  -0.1287  0.6696  0.7017  -0.9456   0.0000   0.0000   0.0000   0.4457
   0.750   0.6779   0.00679   0.00221  -0.1287  0.6660  0.7344  -0.9691   0.0000   0.0000   0.0000   0.4371
   1.000   0.7059   0.00673   0.00225  -0.1287  0.6614  0.7655  -0.9925   0.0000   0.0000   0.0000   0.4293
   1.250   0.7334   0.00668   0.00227  -0.1286  0.6570  0.7986  -1.0157   0.0000   0.0000   0.0000   0.4219
   1.500   0.7600   0.00661   0.00233  -0.1282  0.6524  0.8411  -1.0385   0.0000   0.0000   0.0000   0.4150
   1.750   0.7842   0.00651   0.00238  -0.1273  0.6478  0.8982  -1.0618   0.0000   0.0000   0.0000   0.4082
   2.000   0.8147   0.00644   0.00238  -0.1276  0.6434  0.9721  -1.0914   0.0000   0.0000   0.0000   0.4022
   2.250   0.8492   0.00646   0.00239  -0.1291  0.6376  1.0001  -1.1236   0.0000   0.0000   0.0000   0.3973
   2.500   0.8773   0.00653   0.00243  -0.1293  0.6320  1.0001  -1.1525   0.0000   0.0000   0.0000   0.3923
   2.750   0.9054   0.00659   0.00247  -0.1294  0.6262  1.0001  -1.1817   0.0000   0.0000   0.0000   0.3875
   3.000   0.9335   0.00667   0.00253  -0.1295  0.6207  1.0001  -1.2120   0.0000   0.0000   0.0000   0.3831
   3.250   0.9614   0.00674   0.00258  -0.1296  0.6147  1.0001  -1.2459   0.0000   0.0000   0.0000   0.3788
   3.500   0.9893   0.00682   0.00265  -0.1297  0.6083  1.0001  -1.2806   0.0000   0.0000   0.0000   0.3748
   3.750   1.0167   0.00693   0.00272  -0.1297  0.6016  1.0001  -1.3156   0.0000   0.0000   0.0000   0.3709
   4.000   1.0442   0.00703   0.00280  -0.1298  0.5937  1.0001  -1.3508   0.0000   0.0000   0.0000   0.3673
   4.250   1.0713   0.00714   0.00290  -0.1297  0.5856  1.0001  -1.3860   0.0000   0.0000   0.0000   0.3638
   4.500   1.0981   0.00727   0.00301  -0.1297  0.5768  1.0001  -1.4288   0.0000   0.0000   0.0000   0.3604
   4.750   1.1246   0.00742   0.00312  -0.1295  0.5674  1.0001  -1.4728   0.0000   0.0000   0.0000   0.3572
   5.000   1.1509   0.00757   0.00325  -0.1293  0.5573  1.0001  -1.5168   0.0000   0.0000   0.0000   0.3541
   5.250   1.1769   0.00774   0.00339  -0.1291  0.5465  1.0001  -1.5609   0.0000   0.0000   0.0000   0.3511
   5.500   1.2026   0.00792   0.00354  -0.1289  0.5349  1.0001  -1.6051   0.0000   0.0000   0.0000   0.3482
   5.750   1.2279   0.00812   0.00371  -0.1285  0.5224  1.0001  -1.6492   0.0000   0.0000   0.0000   0.3453
   6.000   1.2524   0.00835   0.00390  -0.1281  0.5090  1.0001  -1.7110   0.0000   0.0000   0.0000   0.3426
   6.250   1.2757   0.00863   0.00413  -0.1274  0.4940  1.0001  -1.7735   0.0000   0.0000   0.0000   0.3398
   6.500   1.2977   0.00897   0.00439  -0.1265  0.4735  1.0001  -1.8375   0.0000   0.0000   0.0000   0.3371
   6.750   1.3177   0.00940   0.00471  -0.1253  0.4502  1.0001  -1.9081   0.0000   0.0000   0.0000   0.3343
   7.000   1.3376   0.00982   0.00504  -0.1241  0.4294  1.0001  -1.9853   0.0000   0.0000   0.0000   0.3316
   7.250   1.3576   0.01023   0.00537  -0.1229  0.4110  1.0001  -2.0653   0.0000   0.0000   0.0000   0.3290
   7.500   1.3762   0.01068   0.00575  -0.1215  0.3924  1.0001  -2.1437   0.0000   0.0000   0.0000   0.3264
   7.750   1.3917   0.01119   0.00618  -0.1196  0.3727  1.0001  -2.2215   0.0000   0.0000   0.0000   0.3236
   8.000   1.4049   0.01175   0.00665  -0.1172  0.3537  1.0001  -2.3208   0.0000   0.0000   0.0000   0.3208
   8.250   1.4193   0.01231   0.00714  -0.1152  0.3352  1.0001  -2.4243   0.0000   0.0000   0.0000   0.3181
   8.500   1.4330   0.01295   0.00771  -0.1132  0.3173  1.0001  -2.5273   0.0000   0.0000   0.0000   0.3155
   8.750   1.4452   0.01369   0.00837  -0.1111  0.2999  1.0001  -2.6278   0.0000   0.0000   0.0000   0.3129
   9.000   1.4573   0.01449   0.00910  -0.1090  0.2827  1.0001  -2.7292   0.0000   0.0000   0.0000   0.3105
   9.250   1.4697   0.01532   0.00986  -0.1072  0.2646  1.0001  -2.8362   0.0000   0.0000   0.0000   0.3082
   9.500   1.4805   0.01628   0.01074  -0.1052  0.2467  1.0001  -2.9429   0.0000   0.0000   0.0000   0.3059
   9.750   1.4907   0.01733   0.01172  -0.1033  0.2308  1.0001  -3.0487   0.0000   0.0000   0.0000   0.3037
  10.000   1.5011   0.01840   0.01272  -0.1015  0.2156  1.0001  -3.1564   0.0000   0.0000   0.0000   0.3016
  10.250   1.5122   0.01946   0.01372  -0.0999  0.1996  1.0001  -3.2670   0.0000   0.0000   0.0000   0.2995
  10.500   1.5212   0.02067   0.01486  -0.0980  0.1852  1.0001  -3.3729   0.0000   0.0000   0.0000   0.2975
  10.750   1.5302   0.02191   0.01606  -0.0963  0.1729  1.0001  -3.4795   0.0000   0.0000   0.0000   0.2955
  11.000   1.5404   0.02308   0.01720  -0.0947  0.1607  1.0001  -3.5910   0.0000   0.0000   0.0000   0.2936
  11.250   1.5487   0.02440   0.01846  -0.0930  0.1475  1.0001  -3.6976   0.0000   0.0000   0.0000   0.2917
  11.500   1.5566   0.02577   0.01978  -0.0913  0.1357  1.0001  -3.8038   0.0000   0.0000   0.0000   0.2898
  11.750   1.5635   0.02722   0.02120  -0.0896  0.1257  1.0001  -3.9077   0.0000   0.0000   0.0000   0.2879
  12.000   1.5712   0.02864   0.02259  -0.0880  0.1161  1.0001  -4.0147   0.0000   0.0000   0.0000   0.2861
  12.250   1.5778   0.03015   0.02407  -0.0864  0.1056  1.0001  -4.1192   0.0000   0.0000   0.0000   0.2844
  12.500   1.5835   0.03175   0.02563  -0.0847  0.0955  1.0001  -4.2216   0.0000   0.0000   0.0000   0.2826
  12.750   1.5886   0.03344   0.02729  -0.0831  0.0866  1.0001  -4.3221   0.0000   0.0000   0.0000   0.2809
  13.000   1.5938   0.03517   0.02900  -0.0815  0.0794  1.0001  -4.4235   0.0000   0.0000   0.0000   0.2793
  13.500   1.6057   0.03863   0.03246  -0.0788  0.0679  1.0001  -4.6374   0.0000   0.0000   0.0000   0.2762
  13.750   1.6117   0.04039   0.03424  -0.0776  0.0631  1.0001  -4.7506   0.0000   0.0000   0.0000   0.2747
  14.000   1.6176   0.04221   0.03607  -0.0764  0.0587  1.0001  -4.8641   0.0000   0.0000   0.0000   0.2732
  14.250   1.6232   0.04410   0.03799  -0.0753  0.0548  1.0001  -4.9768   0.0000   0.0000   0.0000   0.2718
  14.500   1.6280   0.04610   0.04000  -0.0742  0.0512  1.0001  -5.0872   0.0000   0.0000   0.0000   0.2705
  14.750   1.6326   0.04814   0.04207  -0.0732  0.0477  1.0001  -5.1974   0.0000   0.0000   0.0000   0.2692
  15.000   1.6377   0.05016   0.04412  -0.0722  0.0444  1.0001  -5.3094   0.0000   0.0000   0.0000   0.2679
  15.250   1.6413   0.05237   0.04636  -0.0713  0.0414  1.0001  -5.4161   0.0000   0.0000   0.0000   0.2666
  15.500   1.6436   0.05474   0.04876  -0.0704  0.0386  1.0001  -5.5178   0.0000   0.0000   0.0000   0.2655
  15.750   1.6471   0.05706   0.05112  -0.0696  0.0359  1.0001  -5.6290   0.0000   0.0000   0.0000   0.2643
  16.000   1.6482   0.05965   0.05374  -0.0688  0.0335  1.0001  -5.7400   0.0000   0.0000   0.0000   0.2632
  16.250   1.6495   0.06226   0.05640  -0.0681  0.0312  1.0001  -5.8519   0.0000   0.0000   0.0000   0.2622
  16.500   1.6498   0.06499   0.05919  -0.0674  0.0293  1.0001  -5.9593   0.0000   0.0000   0.0000   0.2612
  16.750   1.6496   0.06785   0.06210  -0.0669  0.0275  1.0001  -6.0643   0.0000   0.0000   0.0000   0.2602
  17.000   1.6479   0.07094   0.06524  -0.0664  0.0262  1.0001  -6.1613   0.0000   0.0000   0.0000   0.2594
  17.250   1.6481   0.07385   0.06822  -0.0661  0.0249  1.0001  -6.2680   0.0000   0.0000   0.0000   0.2585
  17.500   1.6456   0.07713   0.07156  -0.0658  0.0239  1.0001  -6.3665   0.0000   0.0000   0.0000   0.2578
  17.750   1.6403   0.08080   0.07529  -0.0656  0.0230  1.0001  -6.4504   0.0000   0.0000   0.0000   0.2572
  18.000   1.6396   0.08391   0.07850  -0.0655  0.0223  1.0001  -6.5593   0.0000   0.0000   0.0000   0.2565
  18.250   1.6373   0.08728   0.08195  -0.0655  0.0217  1.0001  -6.6598   0.0000   0.0000   0.0000   0.2560
  18.500   1.6334   0.09091   0.08565  -0.0656  0.0211  1.0001  -6.7518   0.0000   0.0000   0.0000   0.2555
  18.750   1.6275   0.09486   0.08967  -0.0659  0.0205  1.0001  -6.8310   0.0000   0.0000   0.0000   0.2552
  19.000   1.6177   0.09942   0.09432  -0.0664  0.0200  1.0001  -6.8846   0.0000   0.0000   0.0000   0.2551
  19.250   1.6139   0.10317   0.09816  -0.0669  0.0196  1.0001  -6.9732   0.0000   0.0000   0.0000   0.2548
  19.500   1.6097   0.10698   0.10207  -0.0675  0.0192  1.0001  -7.0585   0.0000   0.0000   0.0000   0.2547
  19.750   1.6046   0.11097   0.10615  -0.0683  0.0189  1.0001  -7.1377   0.0000   0.0000   0.0000   0.2546
  20.000   1.5992   0.11506   0.11033  -0.0692  0.0185  1.0001  -7.2136   0.0000   0.0000   0.0000   0.2546


