xflr5 v6.61

 Calculated polar for: QX0026 root

 1 1 Reynolds number fixed          Mach number fixed         

 xtrf =   1.000 (top)        1.000 (bottom)
 Mach =   0.000     Re =     0.120 e 6     Ncrit =   9.000

  alpha     CL        CD       CDp       Cm    Top Xtr Bot Xtr   Cpmin    Chinge    XCp    
 ------- -------- --------- --------- -------- ------- ------- -------- --------- ---------
  -9.500  -0.1405   0.09989   0.09537  -0.0920  0.9578  0.1110  -1.5127   0.0000   0.0000   0.0000  -0.4549
  -9.000  -0.1188   0.09280   0.08827  -0.0987  0.9496  0.1196  -1.5045   0.0000   0.0000   0.0000  -0.6371
  -8.000  -0.1008   0.08045   0.07595  -0.1078  0.9272  0.1353  -1.5236   0.0000   0.0000   0.0000  -0.8782
  -7.750  -0.1440   0.07727   0.07284  -0.1142  0.9146  0.1406  -1.7233   0.0000   0.0000   0.0000  -0.5818
  -6.750  -0.2264   0.04865   0.04302  -0.1218  0.8826  0.0836  -2.5894   0.0000   0.0000   0.0000  -0.3122
  -6.500  -0.2077   0.04340   0.03715  -0.1242  0.8795  0.0815  -2.6415   0.0000   0.0000   0.0000  -0.3739
  -6.250  -0.2109   0.03986   0.03284  -0.1212  0.8728  0.0794  -2.7384   0.0000   0.0000   0.0000  -0.3498
  -6.000  -0.1748   0.03720   0.02978  -0.1238  0.8709  0.0805  -2.6440   0.0000   0.0000   0.0000  -0.4876
  -5.500  -0.1314   0.03435   0.02607  -0.1231  0.8626  0.0858  -2.5016   0.0000   0.0000   0.0000  -0.7233
  -5.250  -0.1244   0.03406   0.02583  -0.1201  0.8563  0.0876  -2.4280   0.0000   0.0000   0.0000  -0.7529
  -5.000  -0.0851   0.03263   0.02402  -0.1223  0.8543  0.0918  -2.3179   0.0000   0.0000   0.0000  -1.2398
  -4.750  -0.0763   0.03246   0.02385  -0.1196  0.8482  0.0950  -2.2424   0.0000   0.0000   0.0000  -1.3737
  -4.500  -0.0386   0.03148   0.02268  -0.1214  0.8459  0.1012  -2.1186   0.0000   0.0000   0.0000  -3.0047
  -4.250  -0.0266   0.03142   0.02259  -0.1192  0.8401  0.1056  -2.0491   0.0000   0.0000   0.0000  -4.3720
  -4.000   0.0086   0.03076   0.02185  -0.1206  0.8374  0.1145  -1.9334   0.0000   0.0000   0.0000  14.6988
  -3.250   0.0975   0.02947   0.02075  -0.1223  0.8270  0.1547  -1.6103   0.0000   0.0000   0.0000   1.5364
  -3.000   0.1047   0.02979   0.02113  -0.1195  0.8200  0.1702  -1.5540   0.0000   0.0000   0.0000   1.4195
  -2.750   0.1453   0.02908   0.02066  -0.1219  0.8180  0.2119  -1.4317   0.0000   0.0000   0.0000   1.1073
  -2.500   0.1546   0.02940   0.02117  -0.1196  0.8110  0.2454  -1.3669   0.0000   0.0000   0.0000   1.0394
  -2.250   0.1941   0.02880   0.02095  -0.1218  0.8088  0.3242  -1.2397   0.0000   0.0000   0.0000   0.8890
  -1.750   0.2415   0.02874   0.02161  -0.1210  0.7994  0.4987  -1.0520   0.0000   0.0000   0.0000   0.7586
  -1.250   0.2832   0.02904   0.02249  -0.1182  0.7897  0.6692  -0.8820   0.0000   0.0000   0.0000   0.6725
  -0.750   0.3164   0.02945   0.02326  -0.1130  0.7798  0.8185  -0.7381   0.0000   0.0000   0.0000   0.6101
  -0.250   0.3700   0.02989   0.02367  -0.1124  0.7698  1.0001  -0.7096   0.0000   0.0000   0.0000   0.5551
   0.250   0.4276   0.03060   0.02404  -0.1137  0.7596  1.0001  -0.7512   0.0000   0.0000   0.0000   0.5157
   0.500   0.4410   0.03148   0.02482  -0.1122  0.7512  1.0001  -0.7615   0.0000   0.0000   0.0000   0.5038
   0.750   0.4814   0.03134   0.02453  -0.1140  0.7486  1.0001  -0.7917   0.0000   0.0000   0.0000   0.4855
   1.000   0.4960   0.03219   0.02530  -0.1127  0.7405  1.0001  -0.8028   0.0000   0.0000   0.0000   0.4753
   1.500   0.5499   0.03292   0.02586  -0.1128  0.7299  1.0001  -0.8437   0.0000   0.0000   0.0000   0.4524
   2.000   0.6041   0.03355   0.02636  -0.1128  0.7192  1.0001  -0.8925   0.0000   0.0000   0.0000   0.4332
   2.500   0.6383   0.03502   0.02774  -0.1106  0.7028  1.0001  -0.9272   0.0000   0.0000   0.0000   0.4188
   2.750   0.6773   0.03454   0.02721  -0.1116  0.6995  1.0001  -0.9630   0.0000   0.0000   0.0000   0.4099
   3.000   0.7187   0.03390   0.02653  -0.1128  0.6972  1.0001  -1.0020   0.0000   0.0000   0.0000   0.4018
   3.500   0.7769   0.03391   0.02650  -0.1127  0.6870  1.0001  -1.0650   0.0000   0.0000   0.0000   0.3892
   4.000   0.8044   0.03571   0.02829  -0.1097  0.6687  1.0001  -1.1044   0.0000   0.0000   0.0000   0.3797
   4.250   0.8366   0.03536   0.02795  -0.1098  0.6641  1.0001  -1.1423   0.0000   0.0000   0.0000   0.3742
   4.500   0.8961   0.03310   0.02568  -0.1122  0.6659  1.0001  -1.2068   0.0000   0.0000   0.0000   0.3680
   5.000   0.9626   0.03193   0.02455  -0.1124  0.6561  1.0001  -1.2958   0.0000   0.0000   0.0000   0.3588
   5.500   0.9920   0.03303   0.02572  -0.1088  0.6376  1.0001  -1.3554   0.0000   0.0000   0.0000   0.3510
   5.750   1.0423   0.03132   0.02403  -0.1106  0.6363  1.0001  -1.4244   0.0000   0.0000   0.0000   0.3471
   6.000   1.0947   0.02941   0.02215  -0.1127  0.6349  1.0001  -1.4966   0.0000   0.0000   0.0000   0.3436
   6.250   1.1153   0.02938   0.02217  -0.1113  0.6257  1.0001  -1.5360   0.0000   0.0000   0.0000   0.3401
   6.500   1.1679   0.02760   0.02040  -0.1136  0.6238  1.0001  -1.6270   0.0000   0.0000   0.0000   0.3372
   7.500   1.2775   0.02591   0.01893  -0.1111  0.5879  1.0001  -1.9276   0.0000   0.0000   0.0000   0.3254
   7.750   1.3114   0.02515   0.01819  -0.1113  0.5782  1.0001  -2.0293   0.0000   0.0000   0.0000   0.3229
   8.000   1.3385   0.02483   0.01791  -0.1107  0.5671  1.0001  -2.1227   0.0000   0.0000   0.0000   0.3203
   8.250   1.3619   0.02470   0.01782  -0.1096  0.5547  1.0001  -2.2145   0.0000   0.0000   0.0000   0.3177
   8.500   1.3856   0.02456   0.01771  -0.1086  0.5414  1.0001  -2.3384   0.0000   0.0000   0.0000   0.3152
   8.750   1.4132   0.02422   0.01734  -0.1080  0.5271  1.0001  -2.4753   0.0000   0.0000   0.0000   0.3128
   9.000   1.4247   0.02451   0.01766  -0.1052  0.5103  1.0001  -2.5730   0.0000   0.0000   0.0000   0.3098
   9.250   1.4461   0.02446   0.01754  -0.1038  0.4933  1.0001  -2.6984   0.0000   0.0000   0.0000   0.3073
   9.500   1.4525   0.02506   0.01815  -0.1005  0.4754  1.0001  -2.7854   0.0000   0.0000   0.0000   0.3043
   9.750   1.4645   0.02556   0.01862  -0.0981  0.4576  1.0001  -2.8878   0.0000   0.0000   0.0000   0.3016
  10.000   1.4766   0.02614   0.01914  -0.0958  0.4397  1.0001  -2.9916   0.0000   0.0000   0.0000   0.2991
  10.250   1.4821   0.02708   0.02006  -0.0929  0.4215  1.0001  -3.0822   0.0000   0.0000   0.0000   0.2964
  10.500   1.4896   0.02800   0.02094  -0.0903  0.4036  1.0001  -3.1804   0.0000   0.0000   0.0000   0.2939
  10.750   1.4962   0.02903   0.02189  -0.0877  0.3858  1.0001  -3.2768   0.0000   0.0000   0.0000   0.2915
  11.000   1.4989   0.03032   0.02318  -0.0850  0.3680  1.0001  -3.3616   0.0000   0.0000   0.0000   0.2890
  11.250   1.5029   0.03162   0.02442  -0.0824  0.3508  1.0001  -3.4511   0.0000   0.0000   0.0000   0.2867
  11.500   1.5050   0.03308   0.02585  -0.0799  0.3338  1.0001  -3.5350   0.0000   0.0000   0.0000   0.2845
  11.750   1.5056   0.03470   0.02747  -0.0774  0.3171  1.0001  -3.6138   0.0000   0.0000   0.0000   0.2823
  12.000   1.5078   0.03629   0.02896  -0.0751  0.3013  1.0001  -3.6986   0.0000   0.0000   0.0000   0.2802
  12.250   1.5068   0.03816   0.03085  -0.0728  0.2851  1.0001  -3.7721   0.0000   0.0000   0.0000   0.2781
  12.500   1.5064   0.04006   0.03273  -0.0706  0.2698  1.0001  -3.8474   0.0000   0.0000   0.0000   0.2762
  12.750   1.5045   0.04212   0.03478  -0.0684  0.2546  1.0001  -3.9178   0.0000   0.0000   0.0000   0.2743
  13.000   1.5026   0.04426   0.03689  -0.0664  0.2399  1.0001  -3.9877   0.0000   0.0000   0.0000   0.2725
  13.250   1.5005   0.04649   0.03906  -0.0645  0.2256  1.0001  -4.0567   0.0000   0.0000   0.0000   0.2707
  13.500   1.4969   0.04895   0.04154  -0.0627  0.2111  1.0001  -4.1189   0.0000   0.0000   0.0000   0.2691
  13.750   1.4939   0.05144   0.04396  -0.0611  0.1979  1.0001  -4.1834   0.0000   0.0000   0.0000   0.2675
  14.000   1.4899   0.05417   0.04669  -0.0596  0.1846  1.0001  -4.2432   0.0000   0.0000   0.0000   0.2661
  14.250   1.4872   0.05679   0.04923  -0.0582  0.1725  1.0001  -4.3127   0.0000   0.0000   0.0000   0.2647
  14.500   1.4832   0.05971   0.05219  -0.0570  0.1605  1.0001  -4.3737   0.0000   0.0000   0.0000   0.2634
  14.750   1.4799   0.06261   0.05508  -0.0559  0.1498  1.0001  -4.4381   0.0000   0.0000   0.0000   0.2623
  15.000   1.4780   0.06540   0.05779  -0.0550  0.1404  1.0001  -4.5080   0.0000   0.0000   0.0000   0.2611
  15.250   1.4758   0.06833   0.06074  -0.0541  0.1313  1.0001  -4.5729   0.0000   0.0000   0.0000   0.2601
  15.500   1.4743   0.07121   0.06364  -0.0534  0.1230  1.0001  -4.6393   0.0000   0.0000   0.0000   0.2590
  15.750   1.4737   0.07404   0.06649  -0.0526  0.1155  1.0001  -4.7078   0.0000   0.0000   0.0000   0.2580
  16.000   1.4736   0.07686   0.06932  -0.0520  0.1086  1.0001  -4.7769   0.0000   0.0000   0.0000   0.2570
  16.250   1.4742   0.07962   0.07210  -0.0515  0.1024  1.0001  -4.8541   0.0000   0.0000   0.0000   0.2561
  16.500   1.4761   0.08221   0.07467  -0.0509  0.0967  1.0001  -4.9383   0.0000   0.0000   0.0000   0.2551
  16.750   1.4801   0.08450   0.07691  -0.0503  0.0913  1.0001  -5.0323   0.0000   0.0000   0.0000   0.2540
  17.000   1.4780   0.08778   0.08036  -0.0501  0.0865  1.0001  -5.0963   0.0000   0.0000   0.0000   0.2534
  17.250   1.4796   0.09052   0.08316  -0.0498  0.0821  1.0001  -5.1800   0.0000   0.0000   0.0000   0.2525
  17.500   1.4865   0.09249   0.08510  -0.0492  0.0779  1.0001  -5.2908   0.0000   0.0000   0.0000   0.2514
  17.750   1.4903   0.09498   0.08766  -0.0488  0.0743  1.0001  -5.3827   0.0000   0.0000   0.0000   0.2505
  18.000   1.4933   0.09766   0.09046  -0.0485  0.0711  1.0001  -5.4648   0.0000   0.0000   0.0000   0.2497
  18.250   1.5107   0.09821   0.09085  -0.0475  0.0676  1.0001  -5.6319   0.0000   0.0000   0.0000   0.2481
  18.500   1.4997   0.10294   0.09594  -0.0482  0.0657  1.0001  -5.6436   0.0000   0.0000   0.0000   0.2482
  18.750   1.5039   0.10543   0.09849  -0.0482  0.0632  1.0001  -5.7478   0.0000   0.0000   0.0000   0.2475
  19.000   1.5065   0.10824   0.10140  -0.0482  0.0613  1.0001  -5.8375   0.0000   0.0000   0.0000   0.2469
  19.250   1.4972   0.11288   0.10632  -0.0493  0.0599  1.0001  -5.8532   0.0000   0.0000   0.0000   0.2472
  19.500   1.4985   0.11597   0.10954  -0.0497  0.0584  1.0001  -5.9320   0.0000   0.0000   0.0000   0.2468
  19.750   1.5121   0.11722   0.11076  -0.0492  0.0567  1.0001  -6.0846   0.0000   0.0000   0.0000   0.2456
  20.000   1.4921   0.12371   0.11761  -0.0517  0.0562  1.0001  -6.0276   0.0000   0.0000   0.0000   0.2470


