xflr5 v6.61

 Calculated polar for: QX0026 root

 1 1 Reynolds number fixed          Mach number fixed         

 xtrf =   1.000 (top)        1.000 (bottom)
 Mach =   0.000     Re =     0.700 e 6     Ncrit =   9.000

  alpha     CL        CD       CDp       Cm    Top Xtr Bot Xtr   Cpmin    Chinge    XCp    
 ------- -------- --------- --------- -------- ------- ------- -------- --------- ---------
 -10.000  -0.5193   0.01974   0.01427  -0.1217  0.7996  0.0228  -6.1964   0.0000   0.0000   0.0000  -0.0030
  -9.750  -0.4943   0.01914   0.01359  -0.1218  0.7967  0.0233  -5.9647   0.0000   0.0000   0.0000  -0.0152
  -9.500  -0.4690   0.01850   0.01285  -0.1219  0.7935  0.0239  -5.7408   0.0000   0.0000   0.0000  -0.0287
  -9.250  -0.4434   0.01791   0.01214  -0.1219  0.7907  0.0246  -5.5192   0.0000   0.0000   0.0000  -0.0441
  -9.000  -0.4169   0.01749   0.01157  -0.1219  0.7882  0.0251  -5.2937   0.0000   0.0000   0.0000  -0.0620
  -8.750  -0.3927   0.01649   0.01051  -0.1219  0.7852  0.0259  -5.0936   0.0000   0.0000   0.0000  -0.0805
  -8.500  -0.3664   0.01598   0.00998  -0.1220  0.7823  0.0266  -4.8686   0.0000   0.0000   0.0000  -0.1035
  -8.250  -0.3396   0.01555   0.00948  -0.1221  0.7799  0.0273  -4.6475   0.0000   0.0000   0.0000  -0.1306
  -8.000  -0.3127   0.01511   0.00897  -0.1222  0.7772  0.0281  -4.4329   0.0000   0.0000   0.0000  -0.1627
  -7.750  -0.2854   0.01471   0.00849  -0.1223  0.7744  0.0289  -4.2345   0.0000   0.0000   0.0000  -0.2015
  -7.500  -0.2589   0.01412   0.00783  -0.1223  0.7718  0.0298  -4.0490   0.0000   0.0000   0.0000  -0.2467
  -7.250  -0.2318   0.01371   0.00739  -0.1224  0.7695  0.0309  -3.8525   0.0000   0.0000   0.0000  -0.3041
  -7.000  -0.2041   0.01337   0.00703  -0.1226  0.7668  0.0320  -3.6597   0.0000   0.0000   0.0000  -0.3784
  -6.750  -0.1763   0.01305   0.00665  -0.1227  0.7640  0.0331  -3.4728   0.0000   0.0000   0.0000  -0.4769
  -6.500  -0.1490   0.01258   0.00613  -0.1228  0.7615  0.0343  -3.3078   0.0000   0.0000   0.0000  -0.6088
  -6.250  -0.1212   0.01226   0.00578  -0.1229  0.7593  0.0357  -3.1372   0.0000   0.0000   0.0000  -0.8048
  -6.000  -0.0930   0.01200   0.00550  -0.1231  0.7565  0.0374  -2.9692   0.0000   0.0000   0.0000  -1.1233
  -5.750  -0.0652   0.01165   0.00512  -0.1232  0.7536  0.0393  -2.8077   0.0000   0.0000   0.0000  -1.7091
  -5.500  -0.0369   0.01140   0.00485  -0.1234  0.7511  0.0414  -2.6465   0.0000   0.0000   0.0000  -3.2098
  -5.250  -0.0084   0.01119   0.00457  -0.1236  0.7488  0.0435  -2.5016   0.0000   0.0000   0.0000  -14.9478
  -5.000   0.0197   0.01088   0.00430  -0.1238  0.7458  0.0462  -2.3572   0.0000   0.0000   0.0000   6.7182
  -4.750   0.0482   0.01065   0.00405  -0.1239  0.7431  0.0492  -2.2152   0.0000   0.0000   0.0000   2.8930
  -4.500   0.0769   0.01046   0.00384  -0.1242  0.7406  0.0531  -2.0725   0.0000   0.0000   0.0000   1.9080
  -4.250   0.1055   0.01025   0.00362  -0.1244  0.7384  0.0578  -1.9335   0.0000   0.0000   0.0000   1.4583
  -4.000   0.1341   0.01003   0.00344  -0.1246  0.7354  0.0640  -1.7977   0.0000   0.0000   0.0000   1.2010
  -3.750   0.1628   0.00983   0.00326  -0.1248  0.7327  0.0731  -1.6716   0.0000   0.0000   0.0000   1.0335
  -3.500   0.1915   0.00962   0.00310  -0.1251  0.7303  0.0873  -1.5497   0.0000   0.0000   0.0000   0.9162
  -3.250   0.2202   0.00944   0.00298  -0.1254  0.7279  0.1071  -1.4293   0.0000   0.0000   0.0000   0.8295
  -3.000   0.2488   0.00925   0.00288  -0.1256  0.7248  0.1295  -1.3109   0.0000   0.0000   0.0000   0.7631
  -2.750   0.2776   0.00908   0.00279  -0.1259  0.7220  0.1526  -1.1944   0.0000   0.0000   0.0000   0.7101
  -2.500   0.3064   0.00893   0.00269  -0.1262  0.7194  0.1795  -1.0801   0.0000   0.0000   0.0000   0.6670
  -2.250   0.3351   0.00876   0.00262  -0.1264  0.7163  0.2108  -0.9767   0.0000   0.0000   0.0000   0.6315
  -2.000   0.3636   0.00857   0.00256  -0.1267  0.7129  0.2499  -0.8763   0.0000   0.0000   0.0000   0.6016
  -1.750   0.3923   0.00837   0.00250  -0.1270  0.7100  0.2988  -0.7787   0.0000   0.0000   0.0000   0.5761
  -1.500   0.4210   0.00823   0.00247  -0.1273  0.7074  0.3480  -0.7913   0.0000   0.0000   0.0000   0.5540
  -1.250   0.4495   0.00806   0.00247  -0.1275  0.7040  0.3956  -0.8077   0.0000   0.0000   0.0000   0.5347
  -1.000   0.4781   0.00790   0.00245  -0.1278  0.7007  0.4485  -0.8242   0.0000   0.0000   0.0000   0.5177
  -0.750   0.5067   0.00776   0.00243  -0.1280  0.6976  0.5062  -0.8422   0.0000   0.0000   0.0000   0.5025
  -0.500   0.5347   0.00761   0.00245  -0.1281  0.6934  0.5592  -0.8618   0.0000   0.0000   0.0000   0.4890
  -0.250   0.5630   0.00748   0.00245  -0.1282  0.6896  0.6113  -0.8817   0.0000   0.0000   0.0000   0.4767
   0.000   0.5913   0.00741   0.00248  -0.1283  0.6863  0.6597  -0.9016   0.0000   0.0000   0.0000   0.4655
   0.250   0.6193   0.00734   0.00252  -0.1283  0.6822  0.6992  -0.9214   0.0000   0.0000   0.0000   0.4553
   0.500   0.6475   0.00729   0.00253  -0.1283  0.6785  0.7333  -0.9435   0.0000   0.0000   0.0000   0.4459
   0.750   0.6752   0.00724   0.00257  -0.1283  0.6745  0.7660  -0.9667   0.0000   0.0000   0.0000   0.4373
   1.000   0.7025   0.00717   0.00260  -0.1281  0.6701  0.8004  -0.9897   0.0000   0.0000   0.0000   0.4293
   1.250   0.7290   0.00711   0.00262  -0.1277  0.6664  0.8419  -1.0124   0.0000   0.0000   0.0000   0.4217
   1.500   0.7529   0.00700   0.00268  -0.1266  0.6614  0.8970  -1.0337   0.0000   0.0000   0.0000   0.4144
   1.750   0.7837   0.00691   0.00266  -0.1270  0.6570  0.9680  -1.0608   0.0000   0.0000   0.0000   0.4079
   2.000   0.8197   0.00693   0.00267  -0.1288  0.6524  1.0001  -1.0936   0.0000   0.0000   0.0000   0.4028
   2.250   0.8478   0.00699   0.00269  -0.1290  0.6475  1.0001  -1.1218   0.0000   0.0000   0.0000   0.3974
   2.500   0.8758   0.00705   0.00273  -0.1291  0.6421  1.0001  -1.1505   0.0000   0.0000   0.0000   0.3923
   2.750   0.9037   0.00711   0.00276  -0.1291  0.6361  1.0001  -1.1796   0.0000   0.0000   0.0000   0.3875
   3.000   0.9316   0.00718   0.00282  -0.1292  0.6304  1.0001  -1.2098   0.0000   0.0000   0.0000   0.3830
   3.250   0.9595   0.00726   0.00286  -0.1293  0.6249  1.0001  -1.2437   0.0000   0.0000   0.0000   0.3788
   3.500   0.9873   0.00733   0.00294  -0.1294  0.6188  1.0001  -1.2781   0.0000   0.0000   0.0000   0.3747
   3.750   1.0147   0.00743   0.00300  -0.1294  0.6127  1.0001  -1.3131   0.0000   0.0000   0.0000   0.3709
   4.000   1.0422   0.00751   0.00308  -0.1294  0.6051  1.0001  -1.3483   0.0000   0.0000   0.0000   0.3672
   4.250   1.0693   0.00761   0.00317  -0.1294  0.5977  1.0001  -1.3835   0.0000   0.0000   0.0000   0.3637
   4.500   1.0960   0.00773   0.00327  -0.1293  0.5896  1.0001  -1.4260   0.0000   0.0000   0.0000   0.3603
   4.750   1.1223   0.00788   0.00338  -0.1291  0.5806  1.0001  -1.4698   0.0000   0.0000   0.0000   0.3570
   5.000   1.1486   0.00802   0.00350  -0.1289  0.5710  1.0001  -1.5139   0.0000   0.0000   0.0000   0.3539
   5.250   1.1746   0.00817   0.00365  -0.1287  0.5607  1.0001  -1.5579   0.0000   0.0000   0.0000   0.3509
   5.500   1.2002   0.00834   0.00380  -0.1284  0.5499  1.0001  -1.6019   0.0000   0.0000   0.0000   0.3480
   5.750   1.2254   0.00853   0.00396  -0.1280  0.5385  1.0001  -1.6460   0.0000   0.0000   0.0000   0.3451
   6.250   1.2741   0.00898   0.00435  -0.1270  0.5128  1.0001  -1.7707   0.0000   0.0000   0.0000   0.3397
   6.500   1.2969   0.00927   0.00458  -0.1263  0.4968  1.0001  -1.8355   0.0000   0.0000   0.0000   0.3370
   6.750   1.3176   0.00964   0.00488  -0.1252  0.4759  1.0001  -1.9071   0.0000   0.0000   0.0000   0.3342
   7.000   1.3368   0.01007   0.00521  -0.1238  0.4535  1.0001  -1.9828   0.0000   0.0000   0.0000   0.3315
   7.250   1.3558   0.01050   0.00556  -0.1225  0.4340  1.0001  -2.0610   0.0000   0.0000   0.0000   0.3288
   7.500   1.3738   0.01096   0.00594  -0.1210  0.4159  1.0001  -2.1385   0.0000   0.0000   0.0000   0.3261
   7.750   1.3902   0.01144   0.00636  -0.1192  0.3971  1.0001  -2.2162   0.0000   0.0000   0.0000   0.3234
   8.000   1.4031   0.01199   0.00683  -0.1167  0.3775  1.0001  -2.3142   0.0000   0.0000   0.0000   0.3205
   8.250   1.4158   0.01262   0.00737  -0.1144  0.3587  1.0001  -2.4134   0.0000   0.0000   0.0000   0.3177
   8.500   1.4285   0.01329   0.00797  -0.1123  0.3409  1.0001  -2.5139   0.0000   0.0000   0.0000   0.3151
   8.750   1.4412   0.01401   0.00863  -0.1102  0.3230  1.0001  -2.6154   0.0000   0.0000   0.0000   0.3126
   9.000   1.4530   0.01482   0.00938  -0.1082  0.3052  1.0001  -2.7158   0.0000   0.0000   0.0000   0.3101
   9.250   1.4642   0.01573   0.01021  -0.1062  0.2886  1.0001  -2.8170   0.0000   0.0000   0.0000   0.3078
   9.500   1.4751   0.01669   0.01111  -0.1043  0.2713  1.0001  -2.9236   0.0000   0.0000   0.0000   0.3055
  10.000   1.4946   0.01889   0.01315  -0.1005  0.2362  1.0001  -3.1332   0.0000   0.0000   0.0000   0.3011
  10.250   1.5042   0.02005   0.01426  -0.0987  0.2211  1.0001  -3.2391   0.0000   0.0000   0.0000   0.2991
  10.500   1.5137   0.02124   0.01539  -0.0969  0.2053  1.0001  -3.3457   0.0000   0.0000   0.0000   0.2970
  10.750   1.5218   0.02255   0.01663  -0.0951  0.1898  1.0001  -3.4493   0.0000   0.0000   0.0000   0.2950
  11.000   1.5300   0.02387   0.01790  -0.0934  0.1772  1.0001  -3.5539   0.0000   0.0000   0.0000   0.2931
  11.250   1.5386   0.02518   0.01918  -0.0917  0.1653  1.0001  -3.6608   0.0000   0.0000   0.0000   0.2912
  11.500   1.5469   0.02653   0.02050  -0.0901  0.1525  1.0001  -3.7677   0.0000   0.0000   0.0000   0.2894
  12.000   1.5598   0.02954   0.02342  -0.0867  0.1296  1.0001  -3.9719   0.0000   0.0000   0.0000   0.2857
  12.250   1.5658   0.03112   0.02497  -0.0850  0.1198  1.0001  -4.0737   0.0000   0.0000   0.0000   0.2839
  12.500   1.5716   0.03273   0.02656  -0.0834  0.1100  1.0001  -4.1753   0.0000   0.0000   0.0000   0.2822
  12.750   1.5771   0.03441   0.02820  -0.0819  0.0996  1.0001  -4.2767   0.0000   0.0000   0.0000   0.2805
  13.000   1.5815   0.03622   0.02999  -0.0803  0.0905  1.0001  -4.3749   0.0000   0.0000   0.0000   0.2789
  13.250   1.5864   0.03805   0.03180  -0.0789  0.0827  1.0001  -4.4748   0.0000   0.0000   0.0000   0.2773
  13.500   1.5910   0.03992   0.03367  -0.0775  0.0762  1.0001  -4.5766   0.0000   0.0000   0.0000   0.2758
  13.750   1.5959   0.04182   0.03558  -0.0763  0.0706  1.0001  -4.6842   0.0000   0.0000   0.0000   0.2743
  14.000   1.6007   0.04377   0.03754  -0.0751  0.0657  1.0001  -4.7923   0.0000   0.0000   0.0000   0.2729
  14.250   1.6051   0.04579   0.03958  -0.0739  0.0612  1.0001  -4.8995   0.0000   0.0000   0.0000   0.2715
  14.750   1.6137   0.04997   0.04380  -0.0719  0.0532  1.0001  -5.1138   0.0000   0.0000   0.0000   0.2689
  15.000   1.6175   0.05215   0.04602  -0.0709  0.0497  1.0001  -5.2195   0.0000   0.0000   0.0000   0.2676
  15.250   1.6200   0.05451   0.04841  -0.0700  0.0465  1.0001  -5.3202   0.0000   0.0000   0.0000   0.2664
  15.500   1.6229   0.05688   0.05082  -0.0692  0.0434  1.0001  -5.4226   0.0000   0.0000   0.0000   0.2653
  15.750   1.6256   0.05932   0.05330  -0.0684  0.0405  1.0001  -5.5259   0.0000   0.0000   0.0000   0.2642
  16.000   1.6256   0.06206   0.05608  -0.0677  0.0379  1.0001  -5.6265   0.0000   0.0000   0.0000   0.2631
  16.250   1.6270   0.06470   0.05876  -0.0671  0.0354  1.0001  -5.7366   0.0000   0.0000   0.0000   0.2621
  16.500   1.6261   0.06764   0.06176  -0.0665  0.0333  1.0001  -5.8359   0.0000   0.0000   0.0000   0.2612
  16.750   1.6253   0.07062   0.06479  -0.0660  0.0313  1.0001  -5.9363   0.0000   0.0000   0.0000   0.2603
  17.000   1.6228   0.07387   0.06810  -0.0656  0.0296  1.0001  -6.0270   0.0000   0.0000   0.0000   0.2595
  17.250   1.6220   0.07695   0.07125  -0.0654  0.0281  1.0001  -6.1264   0.0000   0.0000   0.0000   0.2588
  17.500   1.6171   0.08058   0.07494  -0.0652  0.0270  1.0001  -6.2048   0.0000   0.0000   0.0000   0.2581
  17.750   1.6136   0.08407   0.07851  -0.0651  0.0260  1.0001  -6.2935   0.0000   0.0000   0.0000   0.2575
  18.000   1.6114   0.08745   0.08198  -0.0651  0.0250  1.0001  -6.3914   0.0000   0.0000   0.0000   0.2570
  18.250   1.6071   0.09117   0.08578  -0.0653  0.0243  1.0001  -6.4775   0.0000   0.0000   0.0000   0.2566
  18.500   1.6000   0.09532   0.09000  -0.0656  0.0236  1.0001  -6.5470   0.0000   0.0000   0.0000   0.2563
  18.750   1.5910   0.09981   0.09457  -0.0661  0.0230  1.0001  -6.6027   0.0000   0.0000   0.0000   0.2562
  19.000   1.5880   0.10347   0.09833  -0.0666  0.0225  1.0001  -6.6926   0.0000   0.0000   0.0000   0.2560
  19.250   1.5835   0.10735   0.10231  -0.0672  0.0220  1.0001  -6.7735   0.0000   0.0000   0.0000   0.2558
  19.500   1.5784   0.11138   0.10643  -0.0680  0.0215  1.0001  -6.8500   0.0000   0.0000   0.0000   0.2558
  19.750   1.5720   0.11564   0.11077  -0.0690  0.0210  1.0001  -6.9176   0.0000   0.0000   0.0000   0.2559
  20.000   1.5642   0.12019   0.11540  -0.0701  0.0206  1.0001  -6.9734   0.0000   0.0000   0.0000   0.2562


