xflr5 v6.61

 Calculated polar for: QX0026 root

 1 1 Reynolds number fixed          Mach number fixed         

 xtrf =   1.000 (top)        1.000 (bottom)
 Mach =   0.000     Re =     0.220 e 6     Ncrit =   9.000

  alpha     CL        CD       CDp       Cm    Top Xtr Bot Xtr   Cpmin    Chinge    XCp    
 ------- -------- --------- --------- -------- ------- ------- -------- --------- ---------
  -8.750  -0.2907   0.04314   0.03851  -0.1310  0.8667  0.0481  -3.5994   0.0000   0.0000   0.0000  -0.2253
  -8.500  -0.2830   0.03933   0.03442  -0.1316  0.8628  0.0476  -3.5975   0.0000   0.0000   0.0000  -0.2399
  -8.250  -0.2768   0.03501   0.02959  -0.1323  0.8579  0.0474  -3.6421   0.0000   0.0000   0.0000  -0.2528
  -8.000  -0.2661   0.03135   0.02518  -0.1322  0.8543  0.0481  -3.6644   0.0000   0.0000   0.0000  -0.2722
  -7.750  -0.2476   0.02910   0.02264  -0.1321  0.8501  0.0490  -3.5733   0.0000   0.0000   0.0000  -0.3099
  -7.500  -0.2243   0.02783   0.02130  -0.1320  0.8467  0.0499  -3.4230   0.0000   0.0000   0.0000  -0.3666
  -7.250  -0.2015   0.02639   0.01962  -0.1318  0.8436  0.0510  -3.3140   0.0000   0.0000   0.0000  -0.4343
  -7.000  -0.1786   0.02502   0.01794  -0.1315  0.8396  0.0524  -3.2131   0.0000   0.0000   0.0000  -0.5192
  -6.750  -0.1542   0.02373   0.01627  -0.1312  0.8368  0.0544  -3.1034   0.0000   0.0000   0.0000  -0.6375
  -6.500  -0.1293   0.02300   0.01557  -0.1312  0.8330  0.0562  -2.9504   0.0000   0.0000   0.0000  -0.8061
  -6.250  -0.1037   0.02214   0.01453  -0.1309  0.8296  0.0583  -2.8237   0.0000   0.0000   0.0000  -1.0622
  -6.000  -0.0772   0.02119   0.01337  -0.1307  0.8272  0.0604  -2.7102   0.0000   0.0000   0.0000  -1.5067
  -5.750  -0.0523   0.02070   0.01292  -0.1306  0.8230  0.0631  -2.5760   0.0000   0.0000   0.0000  -2.3384
  -5.500  -0.0259   0.02006   0.01216  -0.1304  0.8198  0.0665  -2.4513   0.0000   0.0000   0.0000  -4.9664
  -5.250   0.0014   0.01948   0.01156  -0.1303  0.8176  0.0701  -2.3167   0.0000   0.0000   0.0000  96.2145
  -5.000   0.0259   0.01904   0.01114  -0.1300  0.8129  0.0738  -2.2084   0.0000   0.0000   0.0000   5.4241
  -4.750   0.0529   0.01860   0.01065  -0.1298  0.8100  0.0792  -2.0910   0.0000   0.0000   0.0000   2.7781
  -4.500   0.0799   0.01820   0.01023  -0.1297  0.8073  0.0853  -1.9724   0.0000   0.0000   0.0000   1.9198
  -4.250   0.1049   0.01791   0.01000  -0.1295  0.8029  0.0926  -1.8589   0.0000   0.0000   0.0000   1.5178
  -4.000   0.1319   0.01747   0.00963  -0.1294  0.8001  0.1024  -1.7395   0.0000   0.0000   0.0000   1.2561
  -3.750   0.1585   0.01715   0.00936  -0.1294  0.7970  0.1165  -1.6313   0.0000   0.0000   0.0000   1.0856
  -3.500   0.1839   0.01689   0.00921  -0.1292  0.7929  0.1365  -1.5286   0.0000   0.0000   0.0000   0.9682
  -3.250   0.2117   0.01651   0.00893  -0.1293  0.7902  0.1664  -1.4203   0.0000   0.0000   0.0000   0.8734
  -3.000   0.2378   0.01627   0.00886  -0.1293  0.7868  0.2024  -1.3140   0.0000   0.0000   0.0000   0.8040
  -2.750   0.2637   0.01606   0.00882  -0.1293  0.7828  0.2469  -1.2082   0.0000   0.0000   0.0000   0.7486
  -2.500   0.2917   0.01573   0.00869  -0.1294  0.7803  0.3072  -1.0997   0.0000   0.0000   0.0000   0.7005
  -2.250   0.3171   0.01561   0.00880  -0.1293  0.7764  0.3726  -1.0046   0.0000   0.0000   0.0000   0.6632
  -2.000   0.3432   0.01544   0.00885  -0.1291  0.7725  0.4398  -0.9095   0.0000   0.0000   0.0000   0.6307
  -1.750   0.3711   0.01518   0.00878  -0.1290  0.7701  0.5101  -0.8126   0.0000   0.0000   0.0000   0.6011
  -1.500   0.3950   0.01519   0.00901  -0.1284  0.7655  0.5749  -0.7549   0.0000   0.0000   0.0000   0.5777
  -1.250   0.4209   0.01506   0.00907  -0.1278  0.7620  0.6382  -0.7710   0.0000   0.0000   0.0000   0.5556
  -1.000   0.4483   0.01489   0.00900  -0.1272  0.7596  0.6969  -0.7900   0.0000   0.0000   0.0000   0.5351
  -0.750   0.4701   0.01503   0.00929  -0.1260  0.7544  0.7448  -0.8049   0.0000   0.0000   0.0000   0.5189
  -0.500   0.4950   0.01491   0.00927  -0.1250  0.7513  0.7916  -0.8228   0.0000   0.0000   0.0000   0.5027
  -0.250   0.5198   0.01471   0.00914  -0.1236  0.7491  0.8408  -0.8412   0.0000   0.0000   0.0000   0.4875
   0.250   0.5793   0.01467   0.00922  -0.1236  0.7407  0.9614  -0.8819   0.0000   0.0000   0.0000   0.4621
   0.500   0.6198   0.01465   0.00911  -0.1264  0.7368  1.0001  -0.9117   0.0000   0.0000   0.0000   0.4522
   1.000   0.6776   0.01462   0.00888  -0.1269  0.7293  1.0001  -0.9590   0.0000   0.0000   0.0000   0.4348
   1.250   0.7014   0.01489   0.00913  -0.1265  0.7236  1.0001  -0.9788   0.0000   0.0000   0.0000   0.4275
   1.500   0.7311   0.01487   0.00903  -0.1269  0.7203  1.0001  -1.0032   0.0000   0.0000   0.0000   0.4202
   1.750   0.7587   0.01494   0.00906  -0.1269  0.7162  1.0001  -1.0285   0.0000   0.0000   0.0000   0.4136
   2.000   0.7860   0.01498   0.00905  -0.1268  0.7111  1.0001  -1.0557   0.0000   0.0000   0.0000   0.4074
   2.250   0.8185   0.01476   0.00874  -0.1274  0.7082  1.0001  -1.0871   0.0000   0.0000   0.0000   0.4013
   2.500   0.8419   0.01497   0.00896  -0.1268  0.7015  1.0001  -1.1115   0.0000   0.0000   0.0000   0.3959
   2.750   0.8734   0.01484   0.00876  -0.1273  0.6984  1.0001  -1.1430   0.0000   0.0000   0.0000   0.3907
   3.000   0.8974   0.01506   0.00900  -0.1268  0.6923  1.0001  -1.1698   0.0000   0.0000   0.0000   0.3859
   3.250   0.9285   0.01490   0.00879  -0.1272  0.6885  1.0001  -1.2062   0.0000   0.0000   0.0000   0.3813
   3.500   0.9536   0.01501   0.00891  -0.1268  0.6820  1.0001  -1.2378   0.0000   0.0000   0.0000   0.3769
   3.750   0.9849   0.01482   0.00866  -0.1272  0.6777  1.0001  -1.2755   0.0000   0.0000   0.0000   0.3728
   4.000   1.0095   0.01492   0.00880  -0.1267  0.6708  1.0001  -1.3081   0.0000   0.0000   0.0000   0.3688
   4.250   1.0414   0.01472   0.00854  -0.1272  0.6665  1.0001  -1.3473   0.0000   0.0000   0.0000   0.3651
   4.500   1.0653   0.01483   0.00869  -0.1265  0.6589  1.0001  -1.3852   0.0000   0.0000   0.0000   0.3614
   4.750   1.0928   0.01481   0.00867  -0.1264  0.6527  1.0001  -1.4288   0.0000   0.0000   0.0000   0.3579
   5.000   1.1212   0.01473   0.00857  -0.1264  0.6463  1.0001  -1.4748   0.0000   0.0000   0.0000   0.3546
   5.250   1.1459   0.01479   0.00866  -0.1258  0.6384  1.0001  -1.5173   0.0000   0.0000   0.0000   0.3514
   5.500   1.1726   0.01478   0.00867  -0.1256  0.6311  1.0001  -1.5622   0.0000   0.0000   0.0000   0.3483
   5.750   1.2009   0.01472   0.00859  -0.1255  0.6241  1.0001  -1.6091   0.0000   0.0000   0.0000   0.3454
   6.000   1.2245   0.01479   0.00870  -0.1248  0.6148  1.0001  -1.6619   0.0000   0.0000   0.0000   0.3424
   6.250   1.2487   0.01482   0.00876  -0.1241  0.6048  1.0001  -1.7253   0.0000   0.0000   0.0000   0.3395
   6.500   1.2728   0.01485   0.00880  -0.1233  0.5942  1.0001  -1.7903   0.0000   0.0000   0.0000   0.3367
   6.750   1.2964   0.01493   0.00889  -0.1226  0.5833  1.0001  -1.8594   0.0000   0.0000   0.0000   0.3339
   7.000   1.3196   0.01507   0.00904  -0.1217  0.5722  1.0001  -1.9382   0.0000   0.0000   0.0000   0.3312
   7.250   1.3422   0.01523   0.00921  -0.1208  0.5604  1.0001  -2.0193   0.0000   0.0000   0.0000   0.3286
   7.500   1.3639   0.01544   0.00940  -0.1198  0.5477  1.0001  -2.1026   0.0000   0.0000   0.0000   0.3260
   7.750   1.3819   0.01572   0.00972  -0.1181  0.5321  1.0001  -2.1804   0.0000   0.0000   0.0000   0.3233
   8.000   1.4001   0.01599   0.00994  -0.1165  0.5156  1.0001  -2.2779   0.0000   0.0000   0.0000   0.3206
   8.250   1.4143   0.01640   0.01032  -0.1142  0.4970  1.0001  -2.3802   0.0000   0.0000   0.0000   0.3178
   8.500   1.4274   0.01686   0.01074  -0.1118  0.4791  1.0001  -2.4810   0.0000   0.0000   0.0000   0.3149
   8.750   1.4375   0.01740   0.01123  -0.1089  0.4616  1.0001  -2.5758   0.0000   0.0000   0.0000   0.3120
   9.000   1.4466   0.01807   0.01186  -0.1061  0.4438  1.0001  -2.6689   0.0000   0.0000   0.0000   0.3091
   9.250   1.4551   0.01884   0.01257  -0.1033  0.4262  1.0001  -2.7614   0.0000   0.0000   0.0000   0.3063
   9.500   1.4623   0.01974   0.01342  -0.1005  0.4081  1.0001  -2.8510   0.0000   0.0000   0.0000   0.3037
   9.750   1.4687   0.02075   0.01440  -0.0979  0.3898  1.0001  -2.9394   0.0000   0.0000   0.0000   0.3011
  10.000   1.4744   0.02187   0.01546  -0.0953  0.3723  1.0001  -3.0317   0.0000   0.0000   0.0000   0.2986
  10.250   1.4796   0.02310   0.01664  -0.0928  0.3549  1.0001  -3.1232   0.0000   0.0000   0.0000   0.2962
  10.500   1.4850   0.02439   0.01790  -0.0905  0.3378  1.0001  -3.2155   0.0000   0.0000   0.0000   0.2940
  10.750   1.4893   0.02581   0.01927  -0.0882  0.3215  1.0001  -3.3053   0.0000   0.0000   0.0000   0.2918
  11.000   1.4937   0.02728   0.02072  -0.0860  0.3051  1.0001  -3.3956   0.0000   0.0000   0.0000   0.2897
  11.250   1.4971   0.02886   0.02225  -0.0838  0.2899  1.0001  -3.4839   0.0000   0.0000   0.0000   0.2876
  11.500   1.5008   0.03048   0.02387  -0.0818  0.2743  1.0001  -3.5728   0.0000   0.0000   0.0000   0.2857
  11.750   1.5037   0.03220   0.02557  -0.0799  0.2588  1.0001  -3.6600   0.0000   0.0000   0.0000   0.2838
  12.000   1.5049   0.03408   0.02740  -0.0779  0.2441  1.0001  -3.7421   0.0000   0.0000   0.0000   0.2819
  12.250   1.5063   0.03602   0.02931  -0.0760  0.2291  1.0001  -3.8249   0.0000   0.0000   0.0000   0.2801
  12.500   1.5067   0.03809   0.03135  -0.0742  0.2146  1.0001  -3.9048   0.0000   0.0000   0.0000   0.2783
  12.750   1.5078   0.04019   0.03344  -0.0726  0.1994  1.0001  -3.9867   0.0000   0.0000   0.0000   0.2767
  13.000   1.5077   0.04247   0.03568  -0.0710  0.1856  1.0001  -4.0645   0.0000   0.0000   0.0000   0.2751
  13.250   1.5067   0.04490   0.03807  -0.0695  0.1728  1.0001  -4.1391   0.0000   0.0000   0.0000   0.2736
  13.500   1.5075   0.04725   0.04042  -0.0682  0.1595  1.0001  -4.2191   0.0000   0.0000   0.0000   0.2722
  13.750   1.5063   0.04984   0.04300  -0.0669  0.1477  1.0001  -4.2920   0.0000   0.0000   0.0000   0.2708
  14.000   1.5057   0.05246   0.04560  -0.0657  0.1364  1.0001  -4.3687   0.0000   0.0000   0.0000   0.2696
  14.250   1.5035   0.05529   0.04842  -0.0646  0.1267  1.0001  -4.4422   0.0000   0.0000   0.0000   0.2683
  14.500   1.5010   0.05822   0.05133  -0.0636  0.1180  1.0001  -4.5141   0.0000   0.0000   0.0000   0.2672
  14.750   1.5003   0.06102   0.05416  -0.0628  0.1092  1.0001  -4.5917   0.0000   0.0000   0.0000   0.2661
  15.000   1.4989   0.06395   0.05711  -0.0620  0.1016  1.0001  -4.6662   0.0000   0.0000   0.0000   0.2651
  15.250   1.4970   0.06700   0.06019  -0.0614  0.0950  1.0001  -4.7379   0.0000   0.0000   0.0000   0.2641
  15.500   1.4944   0.07019   0.06339  -0.0608  0.0892  1.0001  -4.8060   0.0000   0.0000   0.0000   0.2632
  15.750   1.4910   0.07350   0.06671  -0.0603  0.0842  1.0001  -4.8703   0.0000   0.0000   0.0000   0.2624
  16.000   1.4879   0.07680   0.07004  -0.0599  0.0795  1.0001  -4.9347   0.0000   0.0000   0.0000   0.2617
  16.250   1.4859   0.08004   0.07334  -0.0596  0.0749  1.0001  -5.0019   0.0000   0.0000   0.0000   0.2610
  16.500   1.4831   0.08340   0.07674  -0.0594  0.0709  1.0001  -5.0707   0.0000   0.0000   0.0000   0.2603
  16.750   1.4796   0.08684   0.08016  -0.0592  0.0675  1.0001  -5.1382   0.0000   0.0000   0.0000   0.2597
  17.000   1.4781   0.09018   0.08361  -0.0593  0.0636  1.0001  -5.2117   0.0000   0.0000   0.0000   0.2592
  17.250   1.4758   0.09357   0.08705  -0.0593  0.0605  1.0001  -5.2862   0.0000   0.0000   0.0000   0.2587
  17.500   1.4737   0.09694   0.09044  -0.0594  0.0576  1.0001  -5.3633   0.0000   0.0000   0.0000   0.2582
  17.750   1.4721   0.10029   0.09388  -0.0596  0.0548  1.0001  -5.4372   0.0000   0.0000   0.0000   0.2578
  18.000   1.4713   0.10345   0.09704  -0.0598  0.0524  1.0001  -5.5204   0.0000   0.0000   0.0000   0.2574
  18.250   1.4709   0.10667   0.10037  -0.0601  0.0501  1.0001  -5.5963   0.0000   0.0000   0.0000   0.2570
  18.500   1.4717   0.10966   0.10338  -0.0604  0.0481  1.0001  -5.6838   0.0000   0.0000   0.0000   0.2565
  18.750   1.4737   0.11237   0.10613  -0.0605  0.0463  1.0001  -5.7781   0.0000   0.0000   0.0000   0.2559
  19.000   1.4744   0.11547   0.10935  -0.0610  0.0446  1.0001  -5.8666   0.0000   0.0000   0.0000   0.2556
  19.250   1.4788   0.11780   0.11164  -0.0612  0.0431  1.0001  -5.9846   0.0000   0.0000   0.0000   0.2550
  19.500   1.4813   0.12046   0.11438  -0.0615  0.0418  1.0001  -6.0841   0.0000   0.0000   0.0000   0.2545
  19.750   1.4809   0.12379   0.11786  -0.0624  0.0405  1.0001  -6.1642   0.0000   0.0000   0.0000   0.2544
  20.000   1.4845   0.12638   0.12049  -0.0630  0.0393  1.0001  -6.2751   0.0000   0.0000   0.0000   0.2541


