xflr5 v6.61

 Calculated polar for: QX0026 root

 1 1 Reynolds number fixed          Mach number fixed         

 xtrf =   1.000 (top)        1.000 (bottom)
 Mach =   0.000     Re =     0.725 e 6     Ncrit =   9.000

  alpha     CL        CD       CDp       Cm    Top Xtr Bot Xtr   Cpmin    Chinge    XCp    
 ------- -------- --------- --------- -------- ------- ------- -------- --------- ---------
 -10.000  -0.5215   0.01923   0.01373  -0.1215  0.7979  0.0226  -6.2328   0.0000   0.0000   0.0000  -0.0016
  -9.750  -0.4962   0.01866   0.01311  -0.1216  0.7946  0.0231  -5.9955   0.0000   0.0000   0.0000  -0.0138
  -9.500  -0.4707   0.01809   0.01245  -0.1217  0.7916  0.0236  -5.7654   0.0000   0.0000   0.0000  -0.0274
  -9.250  -0.4450   0.01754   0.01179  -0.1217  0.7891  0.0243  -5.5402   0.0000   0.0000   0.0000  -0.0427
  -9.000  -0.4185   0.01707   0.01121  -0.1218  0.7862  0.0249  -5.3138   0.0000   0.0000   0.0000  -0.0606
  -8.750  -0.3930   0.01635   0.01039  -0.1218  0.7833  0.0256  -5.1033   0.0000   0.0000   0.0000  -0.0799
  -8.500  -0.3675   0.01567   0.00966  -0.1219  0.7807  0.0263  -4.8874   0.0000   0.0000   0.0000  -0.1020
  -8.250  -0.3407   0.01525   0.00920  -0.1219  0.7782  0.0270  -4.6638   0.0000   0.0000   0.0000  -0.1290
  -8.000  -0.3136   0.01483   0.00873  -0.1221  0.7753  0.0278  -4.4459   0.0000   0.0000   0.0000  -0.1611
  -7.750  -0.2864   0.01442   0.00825  -0.1221  0.7726  0.0286  -4.2464   0.0000   0.0000   0.0000  -0.1995
  -7.500  -0.2584   0.01416   0.00788  -0.1222  0.7703  0.0293  -4.0470   0.0000   0.0000   0.0000  -0.2473
  -7.250  -0.2325   0.01347   0.00719  -0.1223  0.7678  0.0305  -3.8639   0.0000   0.0000   0.0000  -0.3019
  -7.000  -0.2048   0.01314   0.00684  -0.1224  0.7649  0.0316  -3.6689   0.0000   0.0000   0.0000  -0.3758
  -6.750  -0.1769   0.01282   0.00647  -0.1226  0.7623  0.0327  -3.4802   0.0000   0.0000   0.0000  -0.4736
  -6.500  -0.1489   0.01253   0.00608  -0.1227  0.7601  0.0338  -3.3098   0.0000   0.0000   0.0000  -0.6086
  -6.250  -0.1217   0.01207   0.00563  -0.1228  0.7575  0.0353  -3.1445   0.0000   0.0000   0.0000  -0.7998
  -6.000  -0.0935   0.01181   0.00536  -0.1230  0.7546  0.0370  -2.9748   0.0000   0.0000   0.0000  -1.1157
  -5.750  -0.0653   0.01154   0.00503  -0.1231  0.7520  0.0388  -2.8111   0.0000   0.0000   0.0000  -1.7048
  -5.500  -0.0372   0.01124   0.00472  -0.1233  0.7496  0.0409  -2.6512   0.0000   0.0000   0.0000  -3.1819
  -5.250  -0.0086   0.01105   0.00450  -0.1235  0.7469  0.0430  -2.5042   0.0000   0.0000   0.0000  -14.5454
  -5.000   0.0195   0.01073   0.00419  -0.1237  0.7440  0.0457  -2.3607   0.0000   0.0000   0.0000   6.7837
  -4.750   0.0483   0.01056   0.00397  -0.1239  0.7415  0.0485  -2.2167   0.0000   0.0000   0.0000   2.8910
  -4.500   0.0768   0.01033   0.00374  -0.1241  0.7393  0.0525  -2.0747   0.0000   0.0000   0.0000   1.9095
  -4.250   0.1054   0.01011   0.00354  -0.1243  0.7366  0.0571  -1.9357   0.0000   0.0000   0.0000   1.4598
  -4.000   0.1340   0.00990   0.00336  -0.1246  0.7337  0.0632  -1.7991   0.0000   0.0000   0.0000   1.2011
  -3.750   0.1628   0.00972   0.00318  -0.1248  0.7312  0.0720  -1.6724   0.0000   0.0000   0.0000   1.0330
  -3.500   0.1916   0.00952   0.00302  -0.1251  0.7290  0.0861  -1.5503   0.0000   0.0000   0.0000   0.9157
  -3.250   0.2201   0.00932   0.00291  -0.1253  0.7261  0.1055  -1.4301   0.0000   0.0000   0.0000   0.8295
  -3.000   0.2488   0.00914   0.00280  -0.1256  0.7231  0.1275  -1.3113   0.0000   0.0000   0.0000   0.7628
  -2.750   0.2777   0.00898   0.00270  -0.1258  0.7205  0.1503  -1.1945   0.0000   0.0000   0.0000   0.7097
  -2.500   0.3065   0.00883   0.00262  -0.1261  0.7179  0.1768  -1.0802   0.0000   0.0000   0.0000   0.6667
  -2.250   0.3351   0.00865   0.00255  -0.1264  0.7145  0.2073  -0.9767   0.0000   0.0000   0.0000   0.6313
  -2.000   0.3638   0.00847   0.00248  -0.1267  0.7113  0.2449  -0.8761   0.0000   0.0000   0.0000   0.6014
  -1.750   0.3925   0.00829   0.00242  -0.1270  0.7087  0.2932  -0.7784   0.0000   0.0000   0.0000   0.5758
  -1.500   0.4211   0.00812   0.00241  -0.1272  0.7056  0.3423  -0.7915   0.0000   0.0000   0.0000   0.5538
  -1.250   0.4497   0.00797   0.00239  -0.1275  0.7023  0.3891  -0.8080   0.0000   0.0000   0.0000   0.5345
  -1.000   0.4783   0.00781   0.00236  -0.1278  0.6992  0.4413  -0.8247   0.0000   0.0000   0.0000   0.5175
  -0.750   0.5067   0.00766   0.00236  -0.1280  0.6957  0.4980  -0.8424   0.0000   0.0000   0.0000   0.5024
  -0.500   0.5350   0.00751   0.00237  -0.1281  0.6916  0.5513  -0.8622   0.0000   0.0000   0.0000   0.4888
  -0.250   0.5634   0.00740   0.00237  -0.1283  0.6882  0.6032  -0.8822   0.0000   0.0000   0.0000   0.4765
   0.000   0.5915   0.00731   0.00241  -0.1283  0.6845  0.6522  -0.9019   0.0000   0.0000   0.0000   0.4654
   0.250   0.6198   0.00724   0.00244  -0.1284  0.6805  0.6927  -0.9218   0.0000   0.0000   0.0000   0.4552
   0.500   0.6481   0.00721   0.00245  -0.1284  0.6771  0.7272  -0.9440   0.0000   0.0000   0.0000   0.4459
   0.750   0.6758   0.00714   0.00250  -0.1284  0.6727  0.7599  -0.9672   0.0000   0.0000   0.0000   0.4373
   1.000   0.7033   0.00708   0.00252  -0.1282  0.6685  0.7934  -0.9903   0.0000   0.0000   0.0000   0.4293
   1.250   0.7299   0.00702   0.00256  -0.1279  0.6645  0.8328  -1.0131   0.0000   0.0000   0.0000   0.4218
   1.500   0.7545   0.00691   0.00260  -0.1270  0.6596  0.8852  -1.0347   0.0000   0.0000   0.0000   0.4146
   1.750   0.7812   0.00683   0.00260  -0.1264  0.6556  0.9552  -1.0594   0.0000   0.0000   0.0000   0.4078
   2.000   0.8199   0.00682   0.00260  -0.1288  0.6504  1.0001  -1.0940   0.0000   0.0000   0.0000   0.4028
   2.250   0.8481   0.00689   0.00262  -0.1290  0.6458  1.0001  -1.1222   0.0000   0.0000   0.0000   0.3974
   2.500   0.8761   0.00694   0.00267  -0.1291  0.6399  1.0001  -1.1509   0.0000   0.0000   0.0000   0.3923
   3.000   0.9320   0.00707   0.00276  -0.1293  0.6284  1.0001  -1.2102   0.0000   0.0000   0.0000   0.3830
   3.250   0.9598   0.00716   0.00280  -0.1294  0.6232  1.0001  -1.2441   0.0000   0.0000   0.0000   0.3788
   3.500   0.9877   0.00722   0.00288  -0.1295  0.6168  1.0001  -1.2786   0.0000   0.0000   0.0000   0.3748
   3.750   1.0152   0.00731   0.00295  -0.1295  0.6103  1.0001  -1.3137   0.0000   0.0000   0.0000   0.3709
   4.000   1.0425   0.00741   0.00302  -0.1295  0.6032  1.0001  -1.3487   0.0000   0.0000   0.0000   0.3672
   4.250   1.0697   0.00751   0.00311  -0.1295  0.5953  1.0001  -1.3840   0.0000   0.0000   0.0000   0.3637
   4.500   1.0965   0.00763   0.00322  -0.1294  0.5870  1.0001  -1.4266   0.0000   0.0000   0.0000   0.3603
   4.750   1.1229   0.00777   0.00333  -0.1292  0.5780  1.0001  -1.4705   0.0000   0.0000   0.0000   0.3571
   5.000   1.1491   0.00793   0.00345  -0.1290  0.5685  1.0001  -1.5144   0.0000   0.0000   0.0000   0.3540
   5.250   1.1750   0.00809   0.00359  -0.1288  0.5582  1.0001  -1.5584   0.0000   0.0000   0.0000   0.3509
   5.500   1.2006   0.00826   0.00374  -0.1285  0.5473  1.0001  -1.6024   0.0000   0.0000   0.0000   0.3480
   5.750   1.2259   0.00845   0.00391  -0.1281  0.5357  1.0001  -1.6466   0.0000   0.0000   0.0000   0.3452
   6.000   1.2507   0.00865   0.00409  -0.1277  0.5230  1.0001  -1.7082   0.0000   0.0000   0.0000   0.3424
   6.250   1.2746   0.00890   0.00430  -0.1271  0.5092  1.0001  -1.7715   0.0000   0.0000   0.0000   0.3397
   6.500   1.2968   0.00921   0.00454  -0.1263  0.4930  1.0001  -1.8357   0.0000   0.0000   0.0000   0.3370
   6.750   1.3174   0.00960   0.00484  -0.1252  0.4713  1.0001  -1.9069   0.0000   0.0000   0.0000   0.3342
   7.000   1.3367   0.01002   0.00518  -0.1238  0.4489  1.0001  -1.9828   0.0000   0.0000   0.0000   0.3315
   7.250   1.3559   0.01045   0.00553  -0.1225  0.4297  1.0001  -2.0614   0.0000   0.0000   0.0000   0.3288
   7.500   1.3745   0.01089   0.00590  -0.1211  0.4113  1.0001  -2.1399   0.0000   0.0000   0.0000   0.3262
   7.750   1.3907   0.01138   0.00632  -0.1193  0.3924  1.0001  -2.2175   0.0000   0.0000   0.0000   0.3235
   8.000   1.4032   0.01195   0.00680  -0.1168  0.3730  1.0001  -2.3149   0.0000   0.0000   0.0000   0.3205
   8.250   1.4159   0.01258   0.00734  -0.1145  0.3543  1.0001  -2.4142   0.0000   0.0000   0.0000   0.3178
   8.500   1.4296   0.01321   0.00791  -0.1125  0.3363  1.0001  -2.5170   0.0000   0.0000   0.0000   0.3152
   8.750   1.4423   0.01393   0.00857  -0.1104  0.3185  1.0001  -2.6186   0.0000   0.0000   0.0000   0.3127
   9.000   1.4534   0.01478   0.00934  -0.1083  0.3011  1.0001  -2.7172   0.0000   0.0000   0.0000   0.3102
   9.250   1.4651   0.01565   0.01015  -0.1064  0.2841  1.0001  -2.8205   0.0000   0.0000   0.0000   0.3079
   9.500   1.4767   0.01658   0.01101  -0.1045  0.2664  1.0001  -2.9288   0.0000   0.0000   0.0000   0.3056
   9.750   1.4866   0.01764   0.01200  -0.1026  0.2483  1.0001  -3.0337   0.0000   0.0000   0.0000   0.3034
  10.000   1.4956   0.01881   0.01309  -0.1006  0.2323  1.0001  -3.1369   0.0000   0.0000   0.0000   0.3012
  10.250   1.5056   0.01994   0.01416  -0.0989  0.2170  1.0001  -3.2441   0.0000   0.0000   0.0000   0.2992
  10.500   1.5154   0.02111   0.01527  -0.0972  0.2009  1.0001  -3.3519   0.0000   0.0000   0.0000   0.2971
  10.750   1.5235   0.02242   0.01652  -0.0954  0.1863  1.0001  -3.4554   0.0000   0.0000   0.0000   0.2951
  11.000   1.5318   0.02373   0.01778  -0.0936  0.1740  1.0001  -3.5605   0.0000   0.0000   0.0000   0.2932
  11.250   1.5407   0.02502   0.01904  -0.0920  0.1622  1.0001  -3.6684   0.0000   0.0000   0.0000   0.2913
  11.500   1.5487   0.02639   0.02036  -0.0903  0.1489  1.0001  -3.7745   0.0000   0.0000   0.0000   0.2894
  11.750   1.5555   0.02785   0.02178  -0.0886  0.1372  1.0001  -3.8776   0.0000   0.0000   0.0000   0.2876
  12.000   1.5617   0.02938   0.02327  -0.0869  0.1269  1.0001  -3.9794   0.0000   0.0000   0.0000   0.2858
  12.250   1.5679   0.03094   0.02481  -0.0853  0.1173  1.0001  -4.0819   0.0000   0.0000   0.0000   0.2840
  12.500   1.5743   0.03251   0.02635  -0.0837  0.1071  1.0001  -4.1855   0.0000   0.0000   0.0000   0.2823
  12.750   1.5791   0.03423   0.02804  -0.0821  0.0971  1.0001  -4.2849   0.0000   0.0000   0.0000   0.2806
  13.000   1.5842   0.03599   0.02977  -0.0806  0.0881  1.0001  -4.3853   0.0000   0.0000   0.0000   0.2790
  13.250   1.5888   0.03784   0.03160  -0.0791  0.0807  1.0001  -4.4846   0.0000   0.0000   0.0000   0.2774
  13.500   1.5936   0.03969   0.03345  -0.0778  0.0745  1.0001  -4.5875   0.0000   0.0000   0.0000   0.2759
  13.750   1.5988   0.04156   0.03533  -0.0765  0.0691  1.0001  -4.6966   0.0000   0.0000   0.0000   0.2744
  14.000   1.6040   0.04346   0.03725  -0.0753  0.0642  1.0001  -4.8065   0.0000   0.0000   0.0000   0.2729
  14.250   1.6090   0.04543   0.03924  -0.0742  0.0598  1.0001  -4.9158   0.0000   0.0000   0.0000   0.2716
  14.500   1.6132   0.04750   0.04133  -0.0731  0.0559  1.0001  -5.0230   0.0000   0.0000   0.0000   0.2702
  14.750   1.6166   0.04968   0.04352  -0.0721  0.0522  1.0001  -5.1271   0.0000   0.0000   0.0000   0.2689
  15.000   1.6213   0.05178   0.04566  -0.0712  0.0487  1.0001  -5.2365   0.0000   0.0000   0.0000   0.2677
  15.250   1.6247   0.05404   0.04796  -0.0703  0.0455  1.0001  -5.3410   0.0000   0.0000   0.0000   0.2665
  15.500   1.6264   0.05652   0.05047  -0.0694  0.0425  1.0001  -5.4388   0.0000   0.0000   0.0000   0.2653
  15.750   1.6297   0.05888   0.05288  -0.0687  0.0396  1.0001  -5.5456   0.0000   0.0000   0.0000   0.2642
  16.000   1.6309   0.06149   0.05553  -0.0679  0.0370  1.0001  -5.6528   0.0000   0.0000   0.0000   0.2631
  16.250   1.6305   0.06430   0.05838  -0.0672  0.0346  1.0001  -5.7554   0.0000   0.0000   0.0000   0.2621
  16.500   1.6313   0.06705   0.06118  -0.0667  0.0324  1.0001  -5.8630   0.0000   0.0000   0.0000   0.2612
  16.750   1.6288   0.07022   0.06439  -0.0662  0.0306  1.0001  -5.9553   0.0000   0.0000   0.0000   0.2603
  17.000   1.6289   0.07315   0.06740  -0.0658  0.0289  1.0001  -6.0592   0.0000   0.0000   0.0000   0.2595
  17.250   1.6266   0.07641   0.07071  -0.0655  0.0275  1.0001  -6.1520   0.0000   0.0000   0.0000   0.2587
  17.500   1.6215   0.08005   0.07442  -0.0653  0.0264  1.0001  -6.2291   0.0000   0.0000   0.0000   0.2581
  17.750   1.6206   0.08320   0.07766  -0.0652  0.0253  1.0001  -6.3338   0.0000   0.0000   0.0000   0.2574
  18.000   1.6173   0.08671   0.08125  -0.0652  0.0245  1.0001  -6.4267   0.0000   0.0000   0.0000   0.2569
  18.250   1.6115   0.09060   0.08521  -0.0653  0.0237  1.0001  -6.5056   0.0000   0.0000   0.0000   0.2565
  18.500   1.6024   0.09503   0.08971  -0.0657  0.0231  1.0001  -6.5628   0.0000   0.0000   0.0000   0.2563
  18.750   1.6001   0.09856   0.09334  -0.0660  0.0225  1.0001  -6.6584   0.0000   0.0000   0.0000   0.2559
  19.000   1.5962   0.10233   0.09721  -0.0665  0.0220  1.0001  -6.7445   0.0000   0.0000   0.0000   0.2557
  19.250   1.5912   0.10626   0.10123  -0.0671  0.0215  1.0001  -6.8241   0.0000   0.0000   0.0000   0.2555
  19.500   1.5849   0.11045   0.10550  -0.0679  0.0210  1.0001  -6.8945   0.0000   0.0000   0.0000   0.2556
  19.750   1.5771   0.11491   0.11004  -0.0689  0.0206  1.0001  -6.9535   0.0000   0.0000   0.0000   0.2557
  20.000   1.5667   0.11983   0.11504  -0.0701  0.0202  1.0001  -6.9933   0.0000   0.0000   0.0000   0.2562


