xflr5 v6.61

 Calculated polar for: QX0026 root

 1 1 Reynolds number fixed          Mach number fixed         

 xtrf =   1.000 (top)        1.000 (bottom)
 Mach =   0.000     Re =     0.820 e 6     Ncrit =   9.000

  alpha     CL        CD       CDp       Cm    Top Xtr Bot Xtr   Cpmin    Chinge    XCp    
 ------- -------- --------- --------- -------- ------- ------- -------- --------- ---------
 -10.000  -0.5240   0.01853   0.01304  -0.1211  0.7911  0.0215  -6.2879   0.0000   0.0000   0.0000   0.0004
  -9.750  -0.5022   0.01726   0.01165  -0.1210  0.7885  0.0222  -6.0936   0.0000   0.0000   0.0000  -0.0095
  -9.500  -0.4764   0.01671   0.01108  -0.1211  0.7854  0.0227  -5.8539   0.0000   0.0000   0.0000  -0.0229
  -9.250  -0.4500   0.01627   0.01059  -0.1212  0.7826  0.0233  -5.6142   0.0000   0.0000   0.0000  -0.0383
  -9.000  -0.4234   0.01587   0.01011  -0.1213  0.7801  0.0239  -5.3779   0.0000   0.0000   0.0000  -0.0558
  -8.750  -0.3964   0.01548   0.00964  -0.1214  0.7775  0.0246  -5.1467   0.0000   0.0000   0.0000  -0.0760
  -8.500  -0.3691   0.01513   0.00920  -0.1215  0.7745  0.0252  -4.9183   0.0000   0.0000   0.0000  -0.0995
  -8.250  -0.3439   0.01432   0.00833  -0.1215  0.7719  0.0259  -4.7153   0.0000   0.0000   0.0000  -0.1242
  -8.000  -0.3169   0.01390   0.00787  -0.1216  0.7696  0.0266  -4.4929   0.0000   0.0000   0.0000  -0.1554
  -7.750  -0.2894   0.01355   0.00750  -0.1217  0.7670  0.0274  -4.2866   0.0000   0.0000   0.0000  -0.1933
  -7.500  -0.2617   0.01323   0.00713  -0.1219  0.7642  0.0283  -4.0849   0.0000   0.0000   0.0000  -0.2397
  -7.250  -0.2335   0.01299   0.00681  -0.1220  0.7617  0.0292  -3.8845   0.0000   0.0000   0.0000  -0.2981
  -7.000  -0.2069   0.01243   0.00621  -0.1221  0.7594  0.0303  -3.7003   0.0000   0.0000   0.0000  -0.3677
  -6.750  -0.1789   0.01213   0.00590  -0.1223  0.7568  0.0314  -3.5064   0.0000   0.0000   0.0000  -0.4637
  -6.500  -0.1508   0.01186   0.00559  -0.1224  0.7541  0.0327  -3.3316   0.0000   0.0000   0.0000  -0.5964
  -6.250  -0.1225   0.01161   0.00528  -0.1226  0.7516  0.0338  -3.1610   0.0000   0.0000   0.0000  -0.7911
  -6.000  -0.0948   0.01123   0.00488  -0.1227  0.7493  0.0355  -2.9944   0.0000   0.0000   0.0000  -1.0942
  -5.750  -0.0663   0.01102   0.00465  -0.1229  0.7465  0.0373  -2.8244   0.0000   0.0000   0.0000  -1.6712
  -5.500  -0.0380   0.01073   0.00434  -0.1231  0.7436  0.0393  -2.6676   0.0000   0.0000   0.0000  -3.0973
  -5.250  -0.0095   0.01050   0.00411  -0.1233  0.7411  0.0415  -2.5169   0.0000   0.0000   0.0000  -13.1070
  -5.000   0.0191   0.01031   0.00386  -0.1235  0.7389  0.0439  -2.3709   0.0000   0.0000   0.0000   6.9089
  -4.750   0.0477   0.01008   0.00365  -0.1237  0.7361  0.0468  -2.2253   0.0000   0.0000   0.0000   2.9203
  -4.500   0.0763   0.00987   0.00344  -0.1239  0.7334  0.0503  -2.0829   0.0000   0.0000   0.0000   1.9172
  -4.250   0.1051   0.00970   0.00325  -0.1242  0.7309  0.0547  -1.9417   0.0000   0.0000   0.0000   1.4603
  -4.000   0.1340   0.00953   0.00308  -0.1244  0.7287  0.0604  -1.8034   0.0000   0.0000   0.0000   1.2001
  -3.750   0.1627   0.00932   0.00292  -0.1246  0.7259  0.0687  -1.6759   0.0000   0.0000   0.0000   1.0327
  -3.500   0.1914   0.00912   0.00278  -0.1249  0.7231  0.0817  -1.5531   0.0000   0.0000   0.0000   0.9154
  -3.250   0.2202   0.00895   0.00265  -0.1252  0.7205  0.0999  -1.4318   0.0000   0.0000   0.0000   0.8285
  -3.000   0.2491   0.00879   0.00255  -0.1255  0.7182  0.1209  -1.3123   0.0000   0.0000   0.0000   0.7618
  -2.750   0.2778   0.00863   0.00247  -0.1257  0.7151  0.1426  -1.1955   0.0000   0.0000   0.0000   0.7090
  -2.500   0.3067   0.00847   0.00239  -0.1260  0.7119  0.1668  -1.0810   0.0000   0.0000   0.0000   0.6660
  -2.250   0.3355   0.00831   0.00231  -0.1263  0.7091  0.1955  -0.9765   0.0000   0.0000   0.0000   0.6304
  -1.750   0.3929   0.00797   0.00221  -0.1269  0.7029  0.2726  -0.7779   0.0000   0.0000   0.0000   0.5752
  -1.500   0.4216   0.00780   0.00217  -0.1272  0.7000  0.3215  -0.7926   0.0000   0.0000   0.0000   0.5532
  -1.250   0.4505   0.00768   0.00214  -0.1275  0.6973  0.3672  -0.8093   0.0000   0.0000   0.0000   0.5339
  -1.000   0.4790   0.00751   0.00214  -0.1277  0.6934  0.4162  -0.8258   0.0000   0.0000   0.0000   0.5169
  -0.750   0.5075   0.00735   0.00212  -0.1279  0.6897  0.4704  -0.8434   0.0000   0.0000   0.0000   0.5019
  -0.500   0.5360   0.00723   0.00212  -0.1281  0.6863  0.5241  -0.8634   0.0000   0.0000   0.0000   0.4884
  -0.250   0.5644   0.00710   0.00214  -0.1283  0.6822  0.5754  -0.8832   0.0000   0.0000   0.0000   0.4762
   0.000   0.5928   0.00699   0.00216  -0.1284  0.6787  0.6249  -0.9032   0.0000   0.0000   0.0000   0.4651
   0.250   0.6211   0.00693   0.00220  -0.1285  0.6751  0.6691  -0.9232   0.0000   0.0000   0.0000   0.4550
   0.500   0.6494   0.00687   0.00223  -0.1286  0.6708  0.7058  -0.9453   0.0000   0.0000   0.0000   0.4457
   0.750   0.6776   0.00684   0.00225  -0.1287  0.6670  0.7384  -0.9688   0.0000   0.0000   0.0000   0.4372
   1.000   0.7055   0.00679   0.00229  -0.1287  0.6627  0.7699  -0.9921   0.0000   0.0000   0.0000   0.4293
   1.250   0.7329   0.00673   0.00232  -0.1285  0.6581  0.8039  -1.0153   0.0000   0.0000   0.0000   0.4219
   1.500   0.7592   0.00666   0.00237  -0.1281  0.6537  0.8478  -1.0380   0.0000   0.0000   0.0000   0.4149
   1.750   0.7830   0.00655   0.00242  -0.1270  0.6490  0.9071  -1.0610   0.0000   0.0000   0.0000   0.4081
   2.000   0.8169   0.00650   0.00241  -0.1281  0.6447  0.9817  -1.0927   0.0000   0.0000   0.0000   0.4024
   2.250   0.8491   0.00652   0.00243  -0.1291  0.6389  1.0001  -1.1233   0.0000   0.0000   0.0000   0.3973
   2.500   0.8770   0.00660   0.00246  -0.1292  0.6335  1.0001  -1.1522   0.0000   0.0000   0.0000   0.3923
   2.750   0.9052   0.00665   0.00251  -0.1294  0.6274  1.0001  -1.1814   0.0000   0.0000   0.0000   0.3875
   3.000   0.9332   0.00673   0.00256  -0.1295  0.6221  1.0001  -1.2117   0.0000   0.0000   0.0000   0.3830
   3.250   0.9612   0.00680   0.00262  -0.1296  0.6160  1.0001  -1.2457   0.0000   0.0000   0.0000   0.3788
   3.500   0.9890   0.00689   0.00268  -0.1297  0.6098  1.0001  -1.2803   0.0000   0.0000   0.0000   0.3748
   3.750   1.0165   0.00699   0.00275  -0.1297  0.6030  1.0001  -1.3153   0.0000   0.0000   0.0000   0.3709
   4.000   1.0440   0.00708   0.00284  -0.1297  0.5952  1.0001  -1.3505   0.0000   0.0000   0.0000   0.3673
   4.250   1.0711   0.00720   0.00293  -0.1297  0.5873  1.0001  -1.3857   0.0000   0.0000   0.0000   0.3638
   4.500   1.0978   0.00733   0.00304  -0.1296  0.5786  1.0001  -1.4284   0.0000   0.0000   0.0000   0.3604
   4.750   1.1242   0.00748   0.00315  -0.1294  0.5693  1.0001  -1.4723   0.0000   0.0000   0.0000   0.3572
   5.250   1.1765   0.00780   0.00342  -0.1290  0.5485  1.0001  -1.5604   0.0000   0.0000   0.0000   0.3510
   5.500   1.2021   0.00798   0.00357  -0.1288  0.5371  1.0001  -1.6045   0.0000   0.0000   0.0000   0.3481
   5.750   1.2274   0.00817   0.00374  -0.1284  0.5247  1.0001  -1.6487   0.0000   0.0000   0.0000   0.3453
   6.000   1.2521   0.00839   0.00393  -0.1280  0.5114  1.0001  -1.7105   0.0000   0.0000   0.0000   0.3425
   6.250   1.2757   0.00866   0.00415  -0.1274  0.4965  1.0001  -1.7734   0.0000   0.0000   0.0000   0.3398
   6.500   1.2978   0.00900   0.00441  -0.1265  0.4769  1.0001  -1.8375   0.0000   0.0000   0.0000   0.3371
   6.750   1.3179   0.00941   0.00472  -0.1253  0.4535  1.0001  -1.9084   0.0000   0.0000   0.0000   0.3343
   7.000   1.3376   0.00984   0.00505  -0.1241  0.4324  1.0001  -1.9852   0.0000   0.0000   0.0000   0.3316
   7.250   1.3572   0.01026   0.00540  -0.1228  0.4142  1.0001  -2.0645   0.0000   0.0000   0.0000   0.3290
   7.500   1.3756   0.01072   0.00578  -0.1214  0.3956  1.0001  -2.1426   0.0000   0.0000   0.0000   0.3263
   7.750   1.3914   0.01123   0.00620  -0.1195  0.3758  1.0001  -2.2206   0.0000   0.0000   0.0000   0.3236
   8.000   1.4050   0.01177   0.00666  -0.1172  0.3567  1.0001  -2.3207   0.0000   0.0000   0.0000   0.3207
   8.250   1.4189   0.01235   0.00717  -0.1151  0.3384  1.0001  -2.4228   0.0000   0.0000   0.0000   0.3180
   8.500   1.4323   0.01300   0.00775  -0.1130  0.3206  1.0001  -2.5252   0.0000   0.0000   0.0000   0.3154
   8.750   1.4445   0.01374   0.00841  -0.1109  0.3027  1.0001  -2.6258   0.0000   0.0000   0.0000   0.3129
   9.000   1.4570   0.01452   0.00912  -0.1090  0.2857  1.0001  -2.7281   0.0000   0.0000   0.0000   0.3105
   9.250   1.4690   0.01537   0.00991  -0.1071  0.2680  1.0001  -2.8340   0.0000   0.0000   0.0000   0.3081
   9.500   1.4799   0.01633   0.01079  -0.1051  0.2499  1.0001  -2.9405   0.0000   0.0000   0.0000   0.3059
   9.750   1.4894   0.01742   0.01179  -0.1031  0.2336  1.0001  -3.0445   0.0000   0.0000   0.0000   0.3036
  10.000   1.5006   0.01844   0.01276  -0.1014  0.2182  1.0001  -3.1542   0.0000   0.0000   0.0000   0.3015
  10.250   1.5113   0.01952   0.01379  -0.0997  0.2025  1.0001  -3.2639   0.0000   0.0000   0.0000   0.2995
  10.500   1.5200   0.02076   0.01494  -0.0979  0.1876  1.0001  -3.3688   0.0000   0.0000   0.0000   0.2974
  10.750   1.5293   0.02198   0.01612  -0.0962  0.1749  1.0001  -3.4763   0.0000   0.0000   0.0000   0.2954
  11.000   1.5387   0.02321   0.01731  -0.0945  0.1631  1.0001  -3.5850   0.0000   0.0000   0.0000   0.2935
  11.250   1.5477   0.02448   0.01854  -0.0929  0.1497  1.0001  -3.6939   0.0000   0.0000   0.0000   0.2916
  11.500   1.5553   0.02588   0.01988  -0.0912  0.1378  1.0001  -3.7990   0.0000   0.0000   0.0000   0.2897
  11.750   1.5625   0.02730   0.02127  -0.0895  0.1275  1.0001  -3.9037   0.0000   0.0000   0.0000   0.2879
  12.000   1.5691   0.02879   0.02273  -0.0878  0.1179  1.0001  -4.0073   0.0000   0.0000   0.0000   0.2861
  12.250   1.5764   0.03026   0.02418  -0.0862  0.1076  1.0001  -4.1140   0.0000   0.0000   0.0000   0.2843
  12.500   1.5818   0.03189   0.02577  -0.0845  0.0973  1.0001  -4.2149   0.0000   0.0000   0.0000   0.2826
  12.750   1.5872   0.03355   0.02740  -0.0829  0.0882  1.0001  -4.3166   0.0000   0.0000   0.0000   0.2809
  13.000   1.5924   0.03529   0.02911  -0.0814  0.0807  1.0001  -4.4180   0.0000   0.0000   0.0000   0.2792
  13.250   1.5981   0.03703   0.03085  -0.0800  0.0744  1.0001  -4.5215   0.0000   0.0000   0.0000   0.2777
  13.500   1.6040   0.03878   0.03260  -0.0787  0.0689  1.0001  -4.6304   0.0000   0.0000   0.0000   0.2761
  13.750   1.6099   0.04056   0.03439  -0.0774  0.0640  1.0001  -4.7429   0.0000   0.0000   0.0000   0.2746
  14.000   1.6155   0.04240   0.03625  -0.0762  0.0596  1.0001  -4.8552   0.0000   0.0000   0.0000   0.2732
  14.250   1.6207   0.04433   0.03820  -0.0751  0.0556  1.0001  -4.9661   0.0000   0.0000   0.0000   0.2718
  14.500   1.6250   0.04639   0.04027  -0.0740  0.0519  1.0001  -5.0743   0.0000   0.0000   0.0000   0.2704
  14.750   1.6305   0.04834   0.04226  -0.0730  0.0483  1.0001  -5.1879   0.0000   0.0000   0.0000   0.2691
  15.000   1.6351   0.05042   0.04437  -0.0720  0.0451  1.0001  -5.2978   0.0000   0.0000   0.0000   0.2678
  15.250   1.6381   0.05268   0.04665  -0.0711  0.0421  1.0001  -5.4022   0.0000   0.0000   0.0000   0.2666
  15.500   1.6414   0.05496   0.04898  -0.0702  0.0391  1.0001  -5.5076   0.0000   0.0000   0.0000   0.2654
  15.750   1.6443   0.05734   0.05139  -0.0694  0.0365  1.0001  -5.6154   0.0000   0.0000   0.0000   0.2643
  16.000   1.6445   0.06004   0.05412  -0.0686  0.0341  1.0001  -5.7218   0.0000   0.0000   0.0000   0.2632
  16.250   1.6469   0.06253   0.05667  -0.0680  0.0317  1.0001  -5.8384   0.0000   0.0000   0.0000   0.2622
  16.500   1.6460   0.06541   0.05959  -0.0673  0.0298  1.0001  -5.9399   0.0000   0.0000   0.0000   0.2612
  16.750   1.6468   0.06817   0.06241  -0.0668  0.0280  1.0001  -6.0493   0.0000   0.0000   0.0000   0.2602
  17.000   1.6433   0.07147   0.06575  -0.0663  0.0265  1.0001  -6.1376   0.0000   0.0000   0.0000   0.2594
  17.250   1.6445   0.07428   0.06865  -0.0660  0.0253  1.0001  -6.2481   0.0000   0.0000   0.0000   0.2586
  17.500   1.6426   0.07749   0.07192  -0.0657  0.0243  1.0001  -6.3491   0.0000   0.0000   0.0000   0.2578
  17.750   1.6375   0.08113   0.07561  -0.0655  0.0234  1.0001  -6.4345   0.0000   0.0000   0.0000   0.2572
  18.000   1.6347   0.08453   0.07910  -0.0654  0.0227  1.0001  -6.5308   0.0000   0.0000   0.0000   0.2566
  18.250   1.6328   0.08786   0.08252  -0.0655  0.0220  1.0001  -6.6328   0.0000   0.0000   0.0000   0.2560
  18.500   1.6295   0.09142   0.08616  -0.0656  0.0214  1.0001  -6.7271   0.0000   0.0000   0.0000   0.2556
  18.750   1.6245   0.09527   0.09008  -0.0659  0.0208  1.0001  -6.8113   0.0000   0.0000   0.0000   0.2552
  19.000   1.6167   0.09954   0.09443  -0.0664  0.0203  1.0001  -6.8779   0.0000   0.0000   0.0000   0.2551
  19.250   1.6071   0.10411   0.09909  -0.0670  0.0199  1.0001  -6.9306   0.0000   0.0000   0.0000   0.2551
  19.500   1.6037   0.10782   0.10290  -0.0676  0.0195  1.0001  -7.0200   0.0000   0.0000   0.0000   0.2549
  19.750   1.5990   0.11178   0.10695  -0.0684  0.0191  1.0001  -7.1002   0.0000   0.0000   0.0000   0.2548
  20.000   1.5935   0.11589   0.11115  -0.0693  0.0188  1.0001  -7.1751   0.0000   0.0000   0.0000   0.2549


