xflr5 v6.61

 Calculated polar for: QX0026 root

 1 1 Reynolds number fixed          Mach number fixed         

 xtrf =   1.000 (top)        1.000 (bottom)
 Mach =   0.000     Re =     0.180 e 6     Ncrit =   9.000

  alpha     CL        CD       CDp       Cm    Top Xtr Bot Xtr   Cpmin    Chinge    XCp    
 ------- -------- --------- --------- -------- ------- ------- -------- --------- ---------
  -8.750  -0.1209   0.08114   0.07720  -0.1005  0.8970  0.0888  -1.6853   0.0000   0.0000   0.0000  -0.6348
  -8.250  -0.2353   0.04540   0.04060  -0.1348  0.8788  0.0601  -3.1074   0.0000   0.0000   0.0000  -0.3509
  -8.000  -0.2217   0.04327   0.03839  -0.1350  0.8737  0.0608  -3.0252   0.0000   0.0000   0.0000  -0.3875
  -7.750  -0.2203   0.03758   0.03207  -0.1356  0.8689  0.0581  -3.1483   0.0000   0.0000   0.0000  -0.3944
  -7.500  -0.2094   0.03383   0.02779  -0.1355  0.8643  0.0574  -3.1621   0.0000   0.0000   0.0000  -0.4267
  -7.250  -0.1935   0.03103   0.02448  -0.1351  0.8604  0.0577  -3.1433   0.0000   0.0000   0.0000  -0.4795
  -7.000  -0.1748   0.02897   0.02185  -0.1345  0.8562  0.0591  -3.0983   0.0000   0.0000   0.0000  -0.5536
  -6.750  -0.1506   0.02753   0.02024  -0.1344  0.8535  0.0609  -2.9773   0.0000   0.0000   0.0000  -0.6801
  -6.500  -0.1290   0.02667   0.01927  -0.1339  0.8486  0.0627  -2.8588   0.0000   0.0000   0.0000  -0.8305
  -6.250  -0.1035   0.02537   0.01763  -0.1336  0.8458  0.0646  -2.7534   0.0000   0.0000   0.0000  -1.0921
  -6.000  -0.0808   0.02447   0.01655  -0.1331  0.8414  0.0667  -2.6541   0.0000   0.0000   0.0000  -1.4603
  -5.750  -0.0550   0.02383   0.01587  -0.1329  0.8381  0.0700  -2.5256   0.0000   0.0000   0.0000  -2.2572
  -5.500  -0.0275   0.02295   0.01485  -0.1328  0.8358  0.0734  -2.4077   0.0000   0.0000   0.0000  -4.7416
  -5.250  -0.0053   0.02256   0.01444  -0.1322  0.8305  0.0767  -2.2951   0.0000   0.0000   0.0000  -25.7713
  -5.000   0.0222   0.02189   0.01374  -0.1321  0.8279  0.0813  -2.1784   0.0000   0.0000   0.0000   6.3958
  -4.750   0.0457   0.02156   0.01336  -0.1316  0.8235  0.0865  -2.0765   0.0000   0.0000   0.0000   3.2163
  -4.500   0.0719   0.02113   0.01290  -0.1313  0.8200  0.0928  -1.9672   0.0000   0.0000   0.0000   2.1308
  -4.250   0.1001   0.02056   0.01237  -0.1314  0.8178  0.1010  -1.8480   0.0000   0.0000   0.0000   1.5977
  -4.000   0.1215   0.02044   0.01235  -0.1307  0.8124  0.1100  -1.7467   0.0000   0.0000   0.0000   1.3538
  -3.750   0.1491   0.02001   0.01195  -0.1307  0.8096  0.1246  -1.6369   0.0000   0.0000   0.0000   1.1478
  -3.500   0.1737   0.01974   0.01179  -0.1304  0.8058  0.1439  -1.5393   0.0000   0.0000   0.0000   1.0176
  -3.250   0.1983   0.01949   0.01168  -0.1301  0.8016  0.1719  -1.4409   0.0000   0.0000   0.0000   0.9202
  -3.000   0.2269   0.01903   0.01137  -0.1303  0.7993  0.2118  -1.3318   0.0000   0.0000   0.0000   0.8355
  -2.750   0.2487   0.01902   0.01158  -0.1298  0.7941  0.2563  -1.2362   0.0000   0.0000   0.0000   0.7813
  -2.500   0.2759   0.01871   0.01150  -0.1299  0.7910  0.3205  -1.1291   0.0000   0.0000   0.0000   0.7284
  -2.250   0.3052   0.01830   0.01133  -0.1300  0.7890  0.3964  -1.0260   0.0000   0.0000   0.0000   0.6822
  -2.000   0.3249   0.01851   0.01180  -0.1291  0.7828  0.4626  -0.9430   0.0000   0.0000   0.0000   0.6526
  -1.750   0.3529   0.01821   0.01173  -0.1289  0.7803  0.5386  -0.8452   0.0000   0.0000   0.0000   0.6192
  -1.500   0.3743   0.01836   0.01210  -0.1278  0.7751  0.6039  -0.7653   0.0000   0.0000   0.0000   0.5947
  -1.250   0.3993   0.01827   0.01218  -0.1269  0.7716  0.6692  -0.7505   0.0000   0.0000   0.0000   0.5703
  -1.000   0.4269   0.01802   0.01204  -0.1261  0.7695  0.7286  -0.7698   0.0000   0.0000   0.0000   0.5471
  -0.750   0.4433   0.01840   0.01257  -0.1240  0.7631  0.7771  -0.7810   0.0000   0.0000   0.0000   0.5310
  -0.500   0.4671   0.01817   0.01244  -0.1223  0.7605  0.8308  -0.7987   0.0000   0.0000   0.0000   0.5124
   0.000   0.5272   0.01827   0.01264  -0.1224  0.7521  0.9699  -0.8383   0.0000   0.0000   0.0000   0.4816
   0.250   0.5682   0.01805   0.01228  -0.1249  0.7500  1.0001  -0.8671   0.0000   0.0000   0.0000   0.4688
   0.500   0.5891   0.01847   0.01263  -0.1243  0.7434  1.0001  -0.8844   0.0000   0.0000   0.0000   0.4595
   0.750   0.6215   0.01828   0.01232  -0.1249  0.7405  1.0001  -0.9104   0.0000   0.0000   0.0000   0.4491
   1.250   0.6745   0.01857   0.01247  -0.1248  0.7312  1.0001  -0.9538   0.0000   0.0000   0.0000   0.4322
   1.500   0.7079   0.01836   0.01216  -0.1255  0.7291  1.0001  -0.9808   0.0000   0.0000   0.0000   0.4241
   1.750   0.7276   0.01887   0.01267  -0.1245  0.7221  1.0001  -0.9999   0.0000   0.0000   0.0000   0.4176
   2.000   0.7609   0.01862   0.01233  -0.1252  0.7196  1.0001  -1.0315   0.0000   0.0000   0.0000   0.4106
   2.250   0.7833   0.01892   0.01262  -0.1244  0.7129  1.0001  -1.0547   0.0000   0.0000   0.0000   0.4046
   2.500   0.8166   0.01858   0.01221  -0.1250  0.7097  1.0001  -1.0869   0.0000   0.0000   0.0000   0.3985
   2.750   0.8407   0.01878   0.01240  -0.1245  0.7035  1.0001  -1.1123   0.0000   0.0000   0.0000   0.3931
   3.000   0.8717   0.01862   0.01220  -0.1248  0.6999  1.0001  -1.1438   0.0000   0.0000   0.0000   0.3879
   3.500   0.9271   0.01863   0.01219  -0.1246  0.6899  1.0001  -1.2106   0.0000   0.0000   0.0000   0.3785
   4.000   0.9850   0.01834   0.01187  -0.1246  0.6793  1.0001  -1.2821   0.0000   0.0000   0.0000   0.3699
   4.250   1.0124   0.01827   0.01180  -0.1244  0.6733  1.0001  -1.3173   0.0000   0.0000   0.0000   0.3659
   4.500   1.0428   0.01806   0.01157  -0.1246  0.6682  1.0001  -1.3591   0.0000   0.0000   0.0000   0.3622
   4.750   1.0679   0.01810   0.01164  -0.1241  0.6613  1.0001  -1.3997   0.0000   0.0000   0.0000   0.3585
   5.000   1.1012   0.01773   0.01123  -0.1247  0.6565  1.0001  -1.4502   0.0000   0.0000   0.0000   0.3552
   5.250   1.1249   0.01778   0.01133  -0.1239  0.6483  1.0001  -1.4916   0.0000   0.0000   0.0000   0.3518
   5.500   1.1521   0.01767   0.01124  -0.1236  0.6411  1.0001  -1.5369   0.0000   0.0000   0.0000   0.3486
   5.750   1.1837   0.01739   0.01093  -0.1240  0.6350  1.0001  -1.5869   0.0000   0.0000   0.0000   0.3456
   6.000   1.2067   0.01747   0.01106  -0.1231  0.6262  1.0001  -1.6337   0.0000   0.0000   0.0000   0.3426
   6.250   1.2314   0.01747   0.01110  -0.1225  0.6174  1.0001  -1.6972   0.0000   0.0000   0.0000   0.3396
   6.500   1.2568   0.01738   0.01103  -0.1219  0.6078  1.0001  -1.7630   0.0000   0.0000   0.0000   0.3368
   6.750   1.2816   0.01729   0.01095  -0.1211  0.5974  1.0001  -1.8315   0.0000   0.0000   0.0000   0.3340
   7.000   1.3057   0.01727   0.01095  -0.1203  0.5864  1.0001  -1.9098   0.0000   0.0000   0.0000   0.3312
   7.250   1.3292   0.01734   0.01103  -0.1195  0.5752  1.0001  -1.9908   0.0000   0.0000   0.0000   0.3286
   7.500   1.3516   0.01745   0.01116  -0.1185  0.5632  1.0001  -2.0747   0.0000   0.0000   0.0000   0.3259
   7.750   1.3734   0.01759   0.01131  -0.1174  0.5504  1.0001  -2.1588   0.0000   0.0000   0.0000   0.3234
   8.000   1.3936   0.01777   0.01148  -0.1160  0.5360  1.0001  -2.2525   0.0000   0.0000   0.0000   0.3207
   8.250   1.4091   0.01807   0.01178  -0.1139  0.5190  1.0001  -2.3575   0.0000   0.0000   0.0000   0.3179
   8.500   1.4245   0.01840   0.01206  -0.1118  0.5013  1.0001  -2.4640   0.0000   0.0000   0.0000   0.3152
   8.750   1.4377   0.01881   0.01244  -0.1094  0.4835  1.0001  -2.5664   0.0000   0.0000   0.0000   0.3123
   9.000   1.4464   0.01938   0.01298  -0.1063  0.4656  1.0001  -2.6584   0.0000   0.0000   0.0000   0.3093
   9.250   1.4562   0.02002   0.01357  -0.1036  0.4481  1.0001  -2.7541   0.0000   0.0000   0.0000   0.3066
   9.500   1.4643   0.02081   0.01430  -0.1008  0.4302  1.0001  -2.8460   0.0000   0.0000   0.0000   0.3038
   9.750   1.4710   0.02172   0.01518  -0.0980  0.4122  1.0001  -2.9350   0.0000   0.0000   0.0000   0.3012
  10.000   1.4772   0.02273   0.01613  -0.0953  0.3944  1.0001  -3.0272   0.0000   0.0000   0.0000   0.2986
  10.250   1.4822   0.02387   0.01723  -0.0927  0.3765  1.0001  -3.1180   0.0000   0.0000   0.0000   0.2961
  10.500   1.4868   0.02512   0.01844  -0.0901  0.3591  1.0001  -3.2079   0.0000   0.0000   0.0000   0.2938
  10.750   1.4909   0.02646   0.01972  -0.0877  0.3425  1.0001  -3.2972   0.0000   0.0000   0.0000   0.2915
  11.000   1.4944   0.02791   0.02116  -0.0853  0.3254  1.0001  -3.3846   0.0000   0.0000   0.0000   0.2893
  11.250   1.4973   0.02944   0.02266  -0.0830  0.3094  1.0001  -3.4712   0.0000   0.0000   0.0000   0.2871
  11.500   1.4998   0.03107   0.02425  -0.0808  0.2937  1.0001  -3.5565   0.0000   0.0000   0.0000   0.2851
  11.750   1.5021   0.03277   0.02594  -0.0787  0.2782  1.0001  -3.6412   0.0000   0.0000   0.0000   0.2831
  12.000   1.5034   0.03459   0.02773  -0.0766  0.2631  1.0001  -3.7231   0.0000   0.0000   0.0000   0.2812
  12.250   1.5045   0.03649   0.02962  -0.0747  0.2481  1.0001  -3.8043   0.0000   0.0000   0.0000   0.2793
  12.500   1.5039   0.03855   0.03163  -0.0727  0.2342  1.0001  -3.8805   0.0000   0.0000   0.0000   0.2775
  12.750   1.5039   0.04067   0.03375  -0.0709  0.2192  1.0001  -3.9580   0.0000   0.0000   0.0000   0.2758
  13.000   1.5030   0.04295   0.03601  -0.0693  0.2047  1.0001  -4.0324   0.0000   0.0000   0.0000   0.2742
  13.250   1.5014   0.04538   0.03842  -0.0677  0.1907  1.0001  -4.1045   0.0000   0.0000   0.0000   0.2727
  13.500   1.4994   0.04793   0.04093  -0.0662  0.1775  1.0001  -4.1743   0.0000   0.0000   0.0000   0.2712
  13.750   1.4971   0.05059   0.04357  -0.0649  0.1647  1.0001  -4.2426   0.0000   0.0000   0.0000   0.2698
  14.000   1.4957   0.05327   0.04626  -0.0637  0.1522  1.0001  -4.3141   0.0000   0.0000   0.0000   0.2686
  14.250   1.4930   0.05615   0.04911  -0.0626  0.1414  1.0001  -4.3849   0.0000   0.0000   0.0000   0.2674
  14.500   1.4899   0.05910   0.05203  -0.0616  0.1318  1.0001  -4.4533   0.0000   0.0000   0.0000   0.2662
  14.750   1.4877   0.06204   0.05499  -0.0607  0.1225  1.0001  -4.5234   0.0000   0.0000   0.0000   0.2651
  15.000   1.4854   0.06505   0.05801  -0.0599  0.1143  1.0001  -4.5925   0.0000   0.0000   0.0000   0.2641
  15.250   1.4832   0.06812   0.06110  -0.0592  0.1068  1.0001  -4.6613   0.0000   0.0000   0.0000   0.2631
  15.500   1.4811   0.07123   0.06424  -0.0587  0.1001  1.0001  -4.7294   0.0000   0.0000   0.0000   0.2622
  15.750   1.4788   0.07439   0.06742  -0.0582  0.0940  1.0001  -4.7960   0.0000   0.0000   0.0000   0.2614
  16.000   1.4765   0.07759   0.07064  -0.0578  0.0886  1.0001  -4.8610   0.0000   0.0000   0.0000   0.2606
  16.250   1.4741   0.08080   0.07385  -0.0574  0.0838  1.0001  -4.9266   0.0000   0.0000   0.0000   0.2599
  16.500   1.4724   0.08395   0.07699  -0.0571  0.0793  1.0001  -4.9998   0.0000   0.0000   0.0000   0.2591
  16.750   1.4713   0.08712   0.08024  -0.0569  0.0749  1.0001  -5.0711   0.0000   0.0000   0.0000   0.2584
  17.000   1.4705   0.09020   0.08336  -0.0567  0.0709  1.0001  -5.1454   0.0000   0.0000   0.0000   0.2578
  17.250   1.4711   0.09296   0.08606  -0.0565  0.0675  1.0001  -5.2362   0.0000   0.0000   0.0000   0.2570
  17.500   1.4699   0.09628   0.08952  -0.0566  0.0640  1.0001  -5.3090   0.0000   0.0000   0.0000   0.2565
  17.750   1.4709   0.09910   0.09236  -0.0565  0.0609  1.0001  -5.3966   0.0000   0.0000   0.0000   0.2558
  18.000   1.4716   0.10207   0.09539  -0.0566  0.0581  1.0001  -5.4819   0.0000   0.0000   0.0000   0.2553
  18.250   1.4733   0.10485   0.09822  -0.0567  0.0555  1.0001  -5.5694   0.0000   0.0000   0.0000   0.2547
  18.500   1.4754   0.10762   0.10105  -0.0568  0.0532  1.0001  -5.6598   0.0000   0.0000   0.0000   0.2541
  18.750   1.4814   0.10960   0.10302  -0.0565  0.0512  1.0001  -5.7769   0.0000   0.0000   0.0000   0.2532
  19.000   1.4817   0.11275   0.10634  -0.0570  0.0494  1.0001  -5.8585   0.0000   0.0000   0.0000   0.2528
  19.250   1.4908   0.11420   0.10773  -0.0566  0.0477  1.0001  -6.0013   0.0000   0.0000   0.0000   0.2517
  19.500   1.4936   0.11683   0.11048  -0.0568  0.0462  1.0001  -6.0970   0.0000   0.0000   0.0000   0.2512
  19.750   1.4920   0.12035   0.11418  -0.0577  0.0449  1.0001  -6.1654   0.0000   0.0000   0.0000   0.2511
  20.000   1.4960   0.12284   0.11673  -0.0582  0.0436  1.0001  -6.2760   0.0000   0.0000   0.0000   0.2507


