xflr5 v6.61

 Calculated polar for: QX0026 root

 1 1 Reynolds number fixed          Mach number fixed         

 xtrf =   1.000 (top)        1.000 (bottom)
 Mach =   0.000     Re =     0.600 e 6     Ncrit =   9.000

  alpha     CL        CD       CDp       Cm    Top Xtr Bot Xtr   Cpmin    Chinge    XCp    
 ------- -------- --------- --------- -------- ------- ------- -------- --------- ---------
  -9.750  -0.4857   0.02125   0.01567  -0.1226  0.8052  0.0247  -5.8378   0.0000   0.0000   0.0000  -0.0214
  -9.500  -0.4613   0.02049   0.01471  -0.1226  0.8020  0.0252  -5.6348   0.0000   0.0000   0.0000  -0.0349
  -9.250  -0.4387   0.01920   0.01331  -0.1225  0.7993  0.0259  -5.4462   0.0000   0.0000   0.0000  -0.0487
  -9.000  -0.4131   0.01866   0.01275  -0.1226  0.7963  0.0266  -5.2164   0.0000   0.0000   0.0000  -0.0666
  -8.750  -0.3870   0.01814   0.01217  -0.1227  0.7933  0.0273  -4.9942   0.0000   0.0000   0.0000  -0.0873
  -8.500  -0.3610   0.01755   0.01146  -0.1228  0.7906  0.0281  -4.7849   0.0000   0.0000   0.0000  -0.1108
  -8.250  -0.3347   0.01699   0.01075  -0.1228  0.7881  0.0288  -4.5803   0.0000   0.0000   0.0000  -0.1383
  -8.000  -0.3087   0.01628   0.00995  -0.1228  0.7850  0.0295  -4.3837   0.0000   0.0000   0.0000  -0.1701
  -7.750  -0.2828   0.01560   0.00925  -0.1228  0.7822  0.0305  -4.1902   0.0000   0.0000   0.0000  -0.2076
  -7.500  -0.2556   0.01523   0.00883  -0.1229  0.7799  0.0315  -3.9918   0.0000   0.0000   0.0000  -0.2557
  -7.250  -0.2282   0.01484   0.00838  -0.1230  0.7773  0.0327  -3.8032   0.0000   0.0000   0.0000  -0.3154
  -7.000  -0.2006   0.01449   0.00793  -0.1231  0.7743  0.0336  -3.6194   0.0000   0.0000   0.0000  -0.3923
  -6.750  -0.1744   0.01380   0.00724  -0.1231  0.7717  0.0349  -3.4455   0.0000   0.0000   0.0000  -0.4874
  -6.500  -0.1468   0.01346   0.00686  -0.1233  0.7695  0.0362  -3.2705   0.0000   0.0000   0.0000  -0.6256
  -6.250  -0.1189   0.01316   0.00651  -0.1234  0.7667  0.0377  -3.1067   0.0000   0.0000   0.0000  -0.8295
  -6.000  -0.0916   0.01271   0.00605  -0.1235  0.7638  0.0394  -2.9477   0.0000   0.0000   0.0000  -1.1493
  -5.750  -0.0635   0.01243   0.00574  -0.1236  0.7613  0.0415  -2.7825   0.0000   0.0000   0.0000  -1.7664
  -5.500  -0.0353   0.01218   0.00540  -0.1238  0.7590  0.0435  -2.6270   0.0000   0.0000   0.0000  -3.3798
  -5.250  -0.0076   0.01181   0.00508  -0.1239  0.7559  0.0459  -2.4843   0.0000   0.0000   0.0000  -16.5047
  -5.000   0.0208   0.01159   0.00481  -0.1241  0.7530  0.0486  -2.3429   0.0000   0.0000   0.0000   6.4042
  -4.750   0.0490   0.01130   0.00452  -0.1243  0.7506  0.0521  -2.2014   0.0000   0.0000   0.0000   2.8588
  -4.500   0.0774   0.01106   0.00427  -0.1245  0.7483  0.0561  -2.0625   0.0000   0.0000   0.0000   1.9008
  -4.250   0.1058   0.01083   0.00406  -0.1247  0.7452  0.0611  -1.9263   0.0000   0.0000   0.0000   1.4581
  -4.000   0.1343   0.01060   0.00385  -0.1249  0.7425  0.0677  -1.7915   0.0000   0.0000   0.0000   1.2015
  -3.750   0.1630   0.01039   0.00364  -0.1251  0.7401  0.0778  -1.6663   0.0000   0.0000   0.0000   1.0340
  -3.500   0.1916   0.01018   0.00349  -0.1253  0.7376  0.0932  -1.5461   0.0000   0.0000   0.0000   0.9173
  -3.250   0.2200   0.00996   0.00337  -0.1256  0.7346  0.1144  -1.4272   0.0000   0.0000   0.0000   0.8313
  -3.000   0.2486   0.00977   0.00325  -0.1258  0.7318  0.1380  -1.3091   0.0000   0.0000   0.0000   0.7645
  -2.750   0.2775   0.00960   0.00314  -0.1261  0.7294  0.1636  -1.1927   0.0000   0.0000   0.0000   0.7112
  -2.500   0.3060   0.00943   0.00307  -0.1264  0.7265  0.1930  -1.0796   0.0000   0.0000   0.0000   0.6684
  -2.250   0.3345   0.00924   0.00299  -0.1266  0.7232  0.2279  -0.9771   0.0000   0.0000   0.0000   0.6328
  -1.750   0.3917   0.00885   0.00287  -0.1272  0.7175  0.3253  -0.7793   0.0000   0.0000   0.0000   0.5772
  -1.500   0.4200   0.00868   0.00285  -0.1274  0.7140  0.3742  -0.7895   0.0000   0.0000   0.0000   0.5551
  -1.250   0.4486   0.00851   0.00283  -0.1277  0.7109  0.4261  -0.8060   0.0000   0.0000   0.0000   0.5357
  -0.750   0.5052   0.00820   0.00284  -0.1280  0.7046  0.5407  -0.8403   0.0000   0.0000   0.0000   0.5033
  -0.500   0.5333   0.00806   0.00283  -0.1281  0.7008  0.5937  -0.8601   0.0000   0.0000   0.0000   0.4896
  -0.250   0.5616   0.00796   0.00283  -0.1282  0.6975  0.6463  -0.8801   0.0000   0.0000   0.0000   0.4772
   0.000   0.5893   0.00788   0.00288  -0.1281  0.6932  0.6899  -0.8996   0.0000   0.0000   0.0000   0.4659
   0.250   0.6174   0.00782   0.00289  -0.1281  0.6897  0.7262  -0.9194   0.0000   0.0000   0.0000   0.4556
   0.500   0.6453   0.00777   0.00291  -0.1280  0.6863  0.7604  -0.9414   0.0000   0.0000   0.0000   0.4461
   0.750   0.6721   0.00769   0.00295  -0.1277  0.6818  0.7955  -0.9640   0.0000   0.0000   0.0000   0.4374
   1.000   0.6986   0.00761   0.00295  -0.1273  0.6780  0.8356  -0.9867   0.0000   0.0000   0.0000   0.4292
   1.250   0.7229   0.00751   0.00300  -0.1263  0.6738  0.8863  -1.0081   0.0000   0.0000   0.0000   0.4214
   1.500   0.7505   0.00741   0.00299  -0.1259  0.6693  0.9536  -1.0315   0.0000   0.0000   0.0000   0.4141
   1.750   0.7906   0.00741   0.00295  -0.1286  0.6651  1.0001  -1.0642   0.0000   0.0000   0.0000   0.4086
   2.000   0.8185   0.00745   0.00298  -0.1287  0.6599  1.0001  -1.0919   0.0000   0.0000   0.0000   0.4029
   2.250   0.8469   0.00752   0.00299  -0.1289  0.6559  1.0001  -1.1203   0.0000   0.0000   0.0000   0.3975
   2.500   0.8746   0.00757   0.00305  -0.1290  0.6504  1.0001  -1.1486   0.0000   0.0000   0.0000   0.3924
   2.750   0.9027   0.00763   0.00305  -0.1290  0.6452  1.0001  -1.1779   0.0000   0.0000   0.0000   0.3876
   3.000   0.9301   0.00768   0.00312  -0.1290  0.6387  1.0001  -1.2079   0.0000   0.0000   0.0000   0.3831
   3.250   0.9580   0.00776   0.00316  -0.1291  0.6335  1.0001  -1.2418   0.0000   0.0000   0.0000   0.3788
   3.500   0.9855   0.00783   0.00324  -0.1292  0.6274  1.0001  -1.2759   0.0000   0.0000   0.0000   0.3747
   3.750   1.0131   0.00792   0.00330  -0.1292  0.6217  1.0001  -1.3109   0.0000   0.0000   0.0000   0.3709
   4.000   1.0404   0.00800   0.00338  -0.1292  0.6147  1.0001  -1.3460   0.0000   0.0000   0.0000   0.3672
   4.250   1.0675   0.00809   0.00347  -0.1291  0.6073  1.0001  -1.3810   0.0000   0.0000   0.0000   0.3637
   4.500   1.0943   0.00820   0.00356  -0.1290  0.5999  1.0001  -1.4236   0.0000   0.0000   0.0000   0.3603
   5.000   1.1468   0.00846   0.00377  -0.1286  0.5820  1.0001  -1.5113   0.0000   0.0000   0.0000   0.3539
   5.250   1.1727   0.00860   0.00391  -0.1284  0.5722  1.0001  -1.5553   0.0000   0.0000   0.0000   0.3508
   5.500   1.1983   0.00877   0.00406  -0.1280  0.5619  1.0001  -1.5992   0.0000   0.0000   0.0000   0.3479
   5.750   1.2234   0.00895   0.00422  -0.1277  0.5509  1.0001  -1.6432   0.0000   0.0000   0.0000   0.3450
   6.000   1.2482   0.00914   0.00440  -0.1272  0.5396  1.0001  -1.7041   0.0000   0.0000   0.0000   0.3423
   6.250   1.2721   0.00937   0.00460  -0.1267  0.5272  1.0001  -1.7674   0.0000   0.0000   0.0000   0.3395
   6.500   1.2954   0.00962   0.00482  -0.1260  0.5133  1.0001  -1.8327   0.0000   0.0000   0.0000   0.3368
   6.750   1.3169   0.00994   0.00508  -0.1250  0.4960  1.0001  -1.9050   0.0000   0.0000   0.0000   0.3341
   7.000   1.3365   0.01034   0.00540  -0.1237  0.4746  1.0001  -1.9808   0.0000   0.0000   0.0000   0.3314
   7.250   1.3549   0.01077   0.00575  -0.1222  0.4535  1.0001  -2.0581   0.0000   0.0000   0.0000   0.3287
   7.500   1.3728   0.01122   0.00613  -0.1206  0.4350  1.0001  -2.1353   0.0000   0.0000   0.0000   0.3260
   7.750   1.3888   0.01172   0.00656  -0.1188  0.4170  1.0001  -2.2118   0.0000   0.0000   0.0000   0.3232
   8.000   1.4021   0.01224   0.00701  -0.1164  0.3981  1.0001  -2.3097   0.0000   0.0000   0.0000   0.3204
   8.250   1.4142   0.01287   0.00756  -0.1140  0.3786  1.0001  -2.4072   0.0000   0.0000   0.0000   0.3175
   8.500   1.4258   0.01358   0.00819  -0.1116  0.3601  1.0001  -2.5047   0.0000   0.0000   0.0000   0.3148
   8.750   1.4372   0.01435   0.00890  -0.1094  0.3427  1.0001  -2.6030   0.0000   0.0000   0.0000   0.3122
   9.000   1.4496   0.01513   0.00962  -0.1075  0.3248  1.0001  -2.7046   0.0000   0.0000   0.0000   0.3098
   9.250   1.4604   0.01605   0.01047  -0.1054  0.3073  1.0001  -2.8031   0.0000   0.0000   0.0000   0.3074
   9.500   1.4701   0.01708   0.01143  -0.1034  0.2908  1.0001  -2.9057   0.0000   0.0000   0.0000   0.3051
   9.750   1.4807   0.01810   0.01241  -0.1015  0.2736  1.0001  -3.0121   0.0000   0.0000   0.0000   0.3029
  10.000   1.4903   0.01923   0.01347  -0.0997  0.2554  1.0001  -3.1165   0.0000   0.0000   0.0000   0.3008
  10.250   1.4984   0.02049   0.01465  -0.0978  0.2387  1.0001  -3.2179   0.0000   0.0000   0.0000   0.2987
  10.500   1.5063   0.02180   0.01589  -0.0959  0.2238  1.0001  -3.3192   0.0000   0.0000   0.0000   0.2966
  10.750   1.5152   0.02306   0.01711  -0.0942  0.2077  1.0001  -3.4248   0.0000   0.0000   0.0000   0.2947
  11.000   1.5226   0.02444   0.01842  -0.0924  0.1919  1.0001  -3.5267   0.0000   0.0000   0.0000   0.2927
  11.250   1.5292   0.02591   0.01983  -0.0905  0.1793  1.0001  -3.6268   0.0000   0.0000   0.0000   0.2908
  11.500   1.5372   0.02728   0.02119  -0.0889  0.1674  1.0001  -3.7321   0.0000   0.0000   0.0000   0.2889
  11.750   1.5441   0.02875   0.02262  -0.0872  0.1549  1.0001  -3.8348   0.0000   0.0000   0.0000   0.2871
  12.000   1.5503   0.03030   0.02412  -0.0856  0.1423  1.0001  -3.9361   0.0000   0.0000   0.0000   0.2853
  12.250   1.5554   0.03196   0.02575  -0.0839  0.1316  1.0001  -4.0340   0.0000   0.0000   0.0000   0.2835
  12.500   1.5608   0.03361   0.02738  -0.0823  0.1215  1.0001  -4.1340   0.0000   0.0000   0.0000   0.2818
  12.750   1.5657   0.03537   0.02911  -0.0807  0.1117  1.0001  -4.2324   0.0000   0.0000   0.0000   0.2801
  13.000   1.5710   0.03713   0.03085  -0.0793  0.1017  1.0001  -4.3327   0.0000   0.0000   0.0000   0.2785
  13.250   1.5750   0.03905   0.03274  -0.0778  0.0923  1.0001  -4.4291   0.0000   0.0000   0.0000   0.2770
  13.500   1.5785   0.04104   0.03472  -0.0764  0.0846  1.0001  -4.5241   0.0000   0.0000   0.0000   0.2754
  13.750   1.5824   0.04305   0.03673  -0.0751  0.0780  1.0001  -4.6273   0.0000   0.0000   0.0000   0.2740
  14.000   1.5862   0.04512   0.03880  -0.0739  0.0723  1.0001  -4.7305   0.0000   0.0000   0.0000   0.2725
  14.250   1.5898   0.04726   0.04095  -0.0728  0.0672  1.0001  -4.8332   0.0000   0.0000   0.0000   0.2712
  14.500   1.5933   0.04942   0.04314  -0.0717  0.0626  1.0001  -4.9362   0.0000   0.0000   0.0000   0.2699
  14.750   1.5971   0.05160   0.04535  -0.0707  0.0584  1.0001  -5.0402   0.0000   0.0000   0.0000   0.2686
  15.000   1.6002   0.05389   0.04768  -0.0698  0.0546  1.0001  -5.1418   0.0000   0.0000   0.0000   0.2674
  15.250   1.6021   0.05636   0.05017  -0.0689  0.0512  1.0001  -5.2387   0.0000   0.0000   0.0000   0.2662
  15.500   1.6042   0.05884   0.05270  -0.0682  0.0479  1.0001  -5.3365   0.0000   0.0000   0.0000   0.2651
  15.750   1.6064   0.06136   0.05527  -0.0675  0.0448  1.0001  -5.4343   0.0000   0.0000   0.0000   0.2640
  16.000   1.6061   0.06417   0.05811  -0.0668  0.0421  1.0001  -5.5285   0.0000   0.0000   0.0000   0.2630
  16.250   1.6067   0.06694   0.06094  -0.0662  0.0393  1.0001  -5.6327   0.0000   0.0000   0.0000   0.2621
  16.500   1.6058   0.06994   0.06400  -0.0657  0.0370  1.0001  -5.7299   0.0000   0.0000   0.0000   0.2612
  16.750   1.6038   0.07313   0.06723  -0.0653  0.0349  1.0001  -5.8220   0.0000   0.0000   0.0000   0.2604
  17.000   1.6015   0.07639   0.07057  -0.0650  0.0330  1.0001  -5.9118   0.0000   0.0000   0.0000   0.2596
  17.250   1.5988   0.07975   0.07399  -0.0648  0.0313  1.0001  -5.9999   0.0000   0.0000   0.0000   0.2590
  17.500   1.5922   0.08363   0.07793  -0.0647  0.0300  1.0001  -6.0670   0.0000   0.0000   0.0000   0.2585
  17.750   1.5908   0.08692   0.08132  -0.0647  0.0287  1.0001  -6.1592   0.0000   0.0000   0.0000   0.2579
  18.000   1.5864   0.09067   0.08513  -0.0649  0.0277  1.0001  -6.2421   0.0000   0.0000   0.0000   0.2575
  18.250   1.5781   0.09499   0.08952  -0.0652  0.0268  1.0001  -6.3030   0.0000   0.0000   0.0000   0.2573
  18.500   1.5724   0.09902   0.09364  -0.0656  0.0261  1.0001  -6.3757   0.0000   0.0000   0.0000   0.2571
  18.750   1.5684   0.10283   0.09755  -0.0661  0.0254  1.0001  -6.4575   0.0000   0.0000   0.0000   0.2568
  19.000   1.5634   0.10681   0.10163  -0.0668  0.0247  1.0001  -6.5328   0.0000   0.0000   0.0000   0.2567
  19.250   1.5570   0.11103   0.10593  -0.0676  0.0241  1.0001  -6.5998   0.0000   0.0000   0.0000   0.2568
  19.500   1.5486   0.11561   0.11058  -0.0686  0.0236  1.0001  -6.6525   0.0000   0.0000   0.0000   0.2570
  19.750   1.5373   0.12069   0.11573  -0.0699  0.0231  1.0001  -6.6828   0.0000   0.0000   0.0000   0.2576
  20.000   1.5343   0.12459   0.11974  -0.0710  0.0227  1.0001  -6.7627   0.0000   0.0000   0.0000   0.2577


