xflr5 v6.61

 Calculated polar for: QX0026 root

 1 1 Reynolds number fixed          Mach number fixed         

 xtrf =   1.000 (top)        1.000 (bottom)
 Mach =   0.000     Re =     0.560 e 6     Ncrit =   9.000

  alpha     CL        CD       CDp       Cm    Top Xtr Bot Xtr   Cpmin    Chinge    XCp    
 ------- -------- --------- --------- -------- ------- ------- -------- --------- ---------
 -10.000  -0.5042   0.02331   0.01792  -0.1229  0.8123  0.0247  -5.9687   0.0000   0.0000   0.0000  -0.0127
  -9.750  -0.4815   0.02235   0.01668  -0.1229  0.8093  0.0252  -5.7835   0.0000   0.0000   0.0000  -0.0243
  -9.500  -0.4603   0.02078   0.01500  -0.1229  0.8063  0.0259  -5.6088   0.0000   0.0000   0.0000  -0.0362
  -9.250  -0.4353   0.02017   0.01436  -0.1230  0.8030  0.0265  -5.3805   0.0000   0.0000   0.0000  -0.0520
  -9.000  -0.4098   0.01962   0.01372  -0.1231  0.8001  0.0273  -5.1588   0.0000   0.0000   0.0000  -0.0701
  -8.750  -0.3843   0.01898   0.01296  -0.1231  0.7976  0.0281  -4.9502   0.0000   0.0000   0.0000  -0.0906
  -8.500  -0.3585   0.01829   0.01212  -0.1231  0.7944  0.0288  -4.7517   0.0000   0.0000   0.0000  -0.1142
  -8.250  -0.3329   0.01752   0.01120  -0.1231  0.7915  0.0295  -4.5587   0.0000   0.0000   0.0000  -0.1413
  -8.000  -0.3076   0.01669   0.01033  -0.1231  0.7891  0.0303  -4.3589   0.0000   0.0000   0.0000  -0.1725
  -7.750  -0.2809   0.01624   0.00986  -0.1232  0.7861  0.0313  -4.1560   0.0000   0.0000   0.0000  -0.2120
  -7.500  -0.2538   0.01581   0.00936  -0.1233  0.7833  0.0324  -3.9657   0.0000   0.0000   0.0000  -0.2605
  -7.250  -0.2264   0.01542   0.00885  -0.1233  0.7808  0.0334  -3.7819   0.0000   0.0000   0.0000  -0.3214
  -7.000  -0.2003   0.01470   0.00808  -0.1233  0.7784  0.0345  -3.6102   0.0000   0.0000   0.0000  -0.3944
  -6.750  -0.1732   0.01428   0.00767  -0.1234  0.7753  0.0357  -3.4253   0.0000   0.0000   0.0000  -0.4945
  -6.500  -0.1456   0.01392   0.00725  -0.1235  0.7726  0.0371  -3.2542   0.0000   0.0000   0.0000  -0.6346
  -6.250  -0.1179   0.01353   0.00678  -0.1236  0.7703  0.0386  -3.0958   0.0000   0.0000   0.0000  -0.8407
  -6.000  -0.0907   0.01312   0.00638  -0.1237  0.7677  0.0404  -2.9324   0.0000   0.0000   0.0000  -1.1673
  -5.750  -0.0627   0.01284   0.00607  -0.1239  0.7647  0.0425  -2.7718   0.0000   0.0000   0.0000  -1.7985
  -5.500  -0.0351   0.01243   0.00564  -0.1240  0.7620  0.0446  -2.6188   0.0000   0.0000   0.0000  -3.4010
  -5.250  -0.0068   0.01217   0.00534  -0.1241  0.7597  0.0471  -2.4749   0.0000   0.0000   0.0000  -18.4958
  -5.000   0.0210   0.01185   0.00502  -0.1243  0.7568  0.0499  -2.3368   0.0000   0.0000   0.0000   6.3462
  -4.750   0.0494   0.01164   0.00479  -0.1244  0.7538  0.0534  -2.1954   0.0000   0.0000   0.0000   2.8438
  -4.500   0.0777   0.01136   0.00451  -0.1246  0.7513  0.0576  -2.0572   0.0000   0.0000   0.0000   1.8985
  -4.250   0.1063   0.01113   0.00425  -0.1248  0.7491  0.0626  -1.9213   0.0000   0.0000   0.0000   1.4547
  -4.000   0.1345   0.01089   0.00406  -0.1250  0.7460  0.0696  -1.7881   0.0000   0.0000   0.0000   1.2017
  -3.750   0.1629   0.01066   0.00386  -0.1252  0.7432  0.0799  -1.6645   0.0000   0.0000   0.0000   1.0355
  -3.500   0.1915   0.01043   0.00368  -0.1255  0.7407  0.0958  -1.5445   0.0000   0.0000   0.0000   0.9182
  -3.250   0.2202   0.01023   0.00354  -0.1257  0.7384  0.1178  -1.4253   0.0000   0.0000   0.0000   0.8314
  -3.000   0.2485   0.01004   0.00345  -0.1260  0.7352  0.1419  -1.3084   0.0000   0.0000   0.0000   0.7653
  -2.750   0.2771   0.00985   0.00335  -0.1262  0.7323  0.1686  -1.1928   0.0000   0.0000   0.0000   0.7122
  -2.500   0.3059   0.00967   0.00324  -0.1265  0.7298  0.1992  -1.0790   0.0000   0.0000   0.0000   0.6689
  -2.250   0.3344   0.00948   0.00317  -0.1268  0.7268  0.2365  -0.9770   0.0000   0.0000   0.0000   0.6334
  -2.000   0.3626   0.00927   0.00312  -0.1270  0.7234  0.2842  -0.8774   0.0000   0.0000   0.0000   0.6036
  -1.750   0.3912   0.00907   0.00306  -0.1273  0.7204  0.3369  -0.7800   0.0000   0.0000   0.0000   0.5778
  -1.500   0.4199   0.00892   0.00302  -0.1276  0.7177  0.3870  -0.7889   0.0000   0.0000   0.0000   0.5555
  -1.250   0.4480   0.00875   0.00303  -0.1277  0.7142  0.4400  -0.8050   0.0000   0.0000   0.0000   0.5362
  -1.000   0.4763   0.00857   0.00302  -0.1279  0.7111  0.4992  -0.8214   0.0000   0.0000   0.0000   0.5190
  -0.750   0.5049   0.00844   0.00301  -0.1281  0.7084  0.5560  -0.8398   0.0000   0.0000   0.0000   0.5036
  -0.500   0.5325   0.00830   0.00305  -0.1281  0.7043  0.6095  -0.8591   0.0000   0.0000   0.0000   0.4900
  -0.250   0.5604   0.00818   0.00306  -0.1281  0.7004  0.6612  -0.8789   0.0000   0.0000   0.0000   0.4775
   0.000   0.5887   0.00812   0.00306  -0.1281  0.6971  0.7026  -0.8988   0.0000   0.0000   0.0000   0.4661
   0.250   0.6161   0.00806   0.00310  -0.1279  0.6929  0.7382  -0.9182   0.0000   0.0000   0.0000   0.4558
   0.500   0.6438   0.00799   0.00310  -0.1278  0.6894  0.7730  -0.9401   0.0000   0.0000   0.0000   0.4463
   0.750   0.6706   0.00792   0.00313  -0.1275  0.6857  0.8099  -0.9628   0.0000   0.0000   0.0000   0.4374
   1.000   0.6960   0.00782   0.00317  -0.1268  0.6812  0.8531  -0.9847   0.0000   0.0000   0.0000   0.4291
   1.250   0.7200   0.00772   0.00316  -0.1256  0.6775  0.9088  -1.0061   0.0000   0.0000   0.0000   0.4211
   1.500   0.7559   0.00764   0.00315  -0.1271  0.6729  0.9772  -1.0342   0.0000   0.0000   0.0000   0.4145
   1.750   0.7900   0.00766   0.00312  -0.1286  0.6684  1.0001  -1.0633   0.0000   0.0000   0.0000   0.4087
   2.000   0.8181   0.00772   0.00314  -0.1287  0.6638  1.0001  -1.0912   0.0000   0.0000   0.0000   0.4030
   2.250   0.8460   0.00777   0.00317  -0.1288  0.6589  1.0001  -1.1192   0.0000   0.0000   0.0000   0.3976
   2.500   0.8743   0.00783   0.00319  -0.1290  0.6546  1.0001  -1.1480   0.0000   0.0000   0.0000   0.3925
   2.750   0.9019   0.00788   0.00324  -0.1290  0.6486  1.0001  -1.1767   0.0000   0.0000   0.0000   0.3877
   3.000   0.9296   0.00794   0.00327  -0.1290  0.6429  1.0001  -1.2071   0.0000   0.0000   0.0000   0.3831
   3.250   0.9572   0.00800   0.00332  -0.1290  0.6368  1.0001  -1.2407   0.0000   0.0000   0.0000   0.3788
   3.500   0.9848   0.00809   0.00339  -0.1291  0.6314  1.0001  -1.2749   0.0000   0.0000   0.0000   0.3748
   3.750   1.0123   0.00816   0.00346  -0.1291  0.6255  1.0001  -1.3099   0.0000   0.0000   0.0000   0.3709
   4.000   1.0396   0.00824   0.00354  -0.1291  0.6187  1.0001  -1.3448   0.0000   0.0000   0.0000   0.3672
   4.250   1.0666   0.00834   0.00360  -0.1290  0.6119  1.0001  -1.3800   0.0000   0.0000   0.0000   0.3637
   4.500   1.0935   0.00843   0.00370  -0.1289  0.6043  1.0001  -1.4224   0.0000   0.0000   0.0000   0.3603
   4.750   1.1200   0.00854   0.00381  -0.1287  0.5959  1.0001  -1.4663   0.0000   0.0000   0.0000   0.3570
   5.000   1.1461   0.00867   0.00392  -0.1285  0.5868  1.0001  -1.5102   0.0000   0.0000   0.0000   0.3538
   5.250   1.1719   0.00882   0.00405  -0.1282  0.5773  1.0001  -1.5540   0.0000   0.0000   0.0000   0.3508
   5.500   1.1974   0.00898   0.00419  -0.1279  0.5673  1.0001  -1.5979   0.0000   0.0000   0.0000   0.3478
   5.750   1.2224   0.00916   0.00435  -0.1275  0.5565  1.0001  -1.6418   0.0000   0.0000   0.0000   0.3450
   6.000   1.2472   0.00935   0.00453  -0.1271  0.5454  1.0001  -1.7025   0.0000   0.0000   0.0000   0.3422
   6.250   1.2714   0.00956   0.00473  -0.1265  0.5332  1.0001  -1.7660   0.0000   0.0000   0.0000   0.3395
   6.500   1.2948   0.00980   0.00494  -0.1259  0.5198  1.0001  -1.8314   0.0000   0.0000   0.0000   0.3368
   6.750   1.3163   0.01012   0.00520  -0.1249  0.5042  1.0001  -1.9035   0.0000   0.0000   0.0000   0.3341
   7.000   1.3361   0.01049   0.00550  -0.1236  0.4839  1.0001  -1.9796   0.0000   0.0000   0.0000   0.3314
   7.250   1.3545   0.01091   0.00585  -0.1221  0.4625  1.0001  -2.0569   0.0000   0.0000   0.0000   0.3286
   7.500   1.3723   0.01136   0.00622  -0.1205  0.4433  1.0001  -2.1340   0.0000   0.0000   0.0000   0.3259
   7.750   1.3887   0.01185   0.00665  -0.1187  0.4253  1.0001  -2.2109   0.0000   0.0000   0.0000   0.3232
   8.000   1.4015   0.01238   0.00711  -0.1163  0.4073  1.0001  -2.3070   0.0000   0.0000   0.0000   0.3203
   8.250   1.4137   0.01299   0.00765  -0.1139  0.3876  1.0001  -2.4049   0.0000   0.0000   0.0000   0.3175
   8.500   1.4250   0.01370   0.00828  -0.1115  0.3687  1.0001  -2.5018   0.0000   0.0000   0.0000   0.3147
   8.750   1.4362   0.01448   0.00900  -0.1092  0.3510  1.0001  -2.5992   0.0000   0.0000   0.0000   0.3121
   9.000   1.4477   0.01530   0.00976  -0.1071  0.3335  1.0001  -2.6985   0.0000   0.0000   0.0000   0.3097
   9.250   1.4589   0.01619   0.01059  -0.1051  0.3158  1.0001  -2.7979   0.0000   0.0000   0.0000   0.3073
   9.500   1.4686   0.01721   0.01155  -0.1031  0.2990  1.0001  -2.8996   0.0000   0.0000   0.0000   0.3050
   9.750   1.4781   0.01830   0.01258  -0.1011  0.2825  1.0001  -3.0026   0.0000   0.0000   0.0000   0.3028
  10.000   1.4882   0.01940   0.01363  -0.0993  0.2647  1.0001  -3.1085   0.0000   0.0000   0.0000   0.3006
  10.250   1.4963   0.02066   0.01480  -0.0974  0.2470  1.0001  -3.2097   0.0000   0.0000   0.0000   0.2985
  10.500   1.5038   0.02199   0.01607  -0.0955  0.2315  1.0001  -3.3098   0.0000   0.0000   0.0000   0.2965
  10.750   1.5117   0.02332   0.01735  -0.0936  0.2163  1.0001  -3.4120   0.0000   0.0000   0.0000   0.2945
  11.000   1.5196   0.02467   0.01865  -0.0919  0.1998  1.0001  -3.5152   0.0000   0.0000   0.0000   0.2925
  11.250   1.5259   0.02616   0.02006  -0.0901  0.1856  1.0001  -3.6145   0.0000   0.0000   0.0000   0.2906
  11.500   1.5324   0.02765   0.02151  -0.0883  0.1737  1.0001  -3.7148   0.0000   0.0000   0.0000   0.2887
  11.750   1.5397   0.02910   0.02294  -0.0867  0.1616  1.0001  -3.8184   0.0000   0.0000   0.0000   0.2869
  12.000   1.5459   0.03065   0.02446  -0.0850  0.1487  1.0001  -3.9194   0.0000   0.0000   0.0000   0.2851
  12.250   1.5513   0.03229   0.02606  -0.0834  0.1371  1.0001  -4.0180   0.0000   0.0000   0.0000   0.2833
  12.500   1.5558   0.03403   0.02776  -0.0817  0.1267  1.0001  -4.1145   0.0000   0.0000   0.0000   0.2816
  12.750   1.5606   0.03580   0.02951  -0.0802  0.1170  1.0001  -4.2123   0.0000   0.0000   0.0000   0.2800
  13.000   1.5658   0.03758   0.03128  -0.0787  0.1069  1.0001  -4.3121   0.0000   0.0000   0.0000   0.2784
  13.250   1.5697   0.03952   0.03319  -0.0773  0.0973  1.0001  -4.4074   0.0000   0.0000   0.0000   0.2768
  13.500   1.5736   0.04148   0.03513  -0.0759  0.0888  1.0001  -4.5035   0.0000   0.0000   0.0000   0.2753
  13.750   1.5770   0.04355   0.03720  -0.0746  0.0816  1.0001  -4.6041   0.0000   0.0000   0.0000   0.2738
  14.000   1.5804   0.04567   0.03932  -0.0734  0.0754  1.0001  -4.7052   0.0000   0.0000   0.0000   0.2724
  14.250   1.5838   0.04782   0.04149  -0.0723  0.0700  1.0001  -4.8070   0.0000   0.0000   0.0000   0.2711
  14.500   1.5870   0.05003   0.04372  -0.0712  0.0653  1.0001  -4.9079   0.0000   0.0000   0.0000   0.2697
  14.750   1.5895   0.05235   0.04606  -0.0702  0.0610  1.0001  -5.0067   0.0000   0.0000   0.0000   0.2685
  15.000   1.5912   0.05480   0.04854  -0.0693  0.0571  1.0001  -5.1021   0.0000   0.0000   0.0000   0.2673
  15.250   1.5944   0.05716   0.05094  -0.0685  0.0533  1.0001  -5.2033   0.0000   0.0000   0.0000   0.2661
  15.500   1.5963   0.05968   0.05351  -0.0677  0.0500  1.0001  -5.2994   0.0000   0.0000   0.0000   0.2650
  15.750   1.5960   0.06248   0.05634  -0.0670  0.0470  1.0001  -5.3863   0.0000   0.0000   0.0000   0.2640
  16.000   1.5978   0.06509   0.05901  -0.0664  0.0439  1.0001  -5.4874   0.0000   0.0000   0.0000   0.2630
  16.250   1.5974   0.06799   0.06196  -0.0658  0.0413  1.0001  -5.5845   0.0000   0.0000   0.0000   0.2621
  16.500   1.5957   0.07111   0.06512  -0.0654  0.0388  1.0001  -5.6776   0.0000   0.0000   0.0000   0.2612
  16.750   1.5946   0.07420   0.06829  -0.0650  0.0366  1.0001  -5.7725   0.0000   0.0000   0.0000   0.2604
  17.000   1.5908   0.07768   0.07181  -0.0647  0.0347  1.0001  -5.8549   0.0000   0.0000   0.0000   0.2597
  17.250   1.5880   0.08106   0.07528  -0.0646  0.0329  1.0001  -5.9398   0.0000   0.0000   0.0000   0.2591
  17.500   1.5845   0.08458   0.07886  -0.0645  0.0314  1.0001  -6.0224   0.0000   0.0000   0.0000   0.2585
  17.750   1.5759   0.08885   0.08318  -0.0646  0.0302  1.0001  -6.0772   0.0000   0.0000   0.0000   0.2582
  18.000   1.5743   0.09223   0.08668  -0.0648  0.0290  1.0001  -6.1692   0.0000   0.0000   0.0000   0.2577
  18.250   1.5701   0.09603   0.09056  -0.0651  0.0280  1.0001  -6.2512   0.0000   0.0000   0.0000   0.2574
  18.500   1.5630   0.10026   0.09486  -0.0656  0.0272  1.0001  -6.3167   0.0000   0.0000   0.0000   0.2573
  18.750   1.5521   0.10506   0.09973  -0.0663  0.0265  1.0001  -6.3570   0.0000   0.0000   0.0000   0.2574
  19.000   1.5489   0.10881   0.10359  -0.0669  0.0259  1.0001  -6.4401   0.0000   0.0000   0.0000   0.2573
  19.250   1.5442   0.11283   0.10771  -0.0678  0.0252  1.0001  -6.5136   0.0000   0.0000   0.0000   0.2573
  19.500   1.5391   0.11696   0.11192  -0.0687  0.0246  1.0001  -6.5842   0.0000   0.0000   0.0000   0.2574
  19.750   1.5332   0.12124   0.11629  -0.0699  0.0241  1.0001  -6.6487   0.0000   0.0000   0.0000   0.2577
  20.000   1.5256   0.12581   0.12092  -0.0712  0.0236  1.0001  -6.7007   0.0000   0.0000   0.0000   0.2581


