xflr5 v6.61

 Calculated polar for: QX0026 root

 1 1 Reynolds number fixed          Mach number fixed         

 xtrf =   1.000 (top)        1.000 (bottom)
 Mach =   0.000     Re =     0.100 e 6     Ncrit =   9.000

  alpha     CL        CD       CDp       Cm    Top Xtr Bot Xtr   Cpmin    Chinge    XCp    
 ------- -------- --------- --------- -------- ------- ------- -------- --------- ---------
 -10.000  -0.2448   0.11880   0.11409  -0.0671  0.9729  0.1150  -1.5757   0.0000   0.0000   0.0000  -0.0529
  -9.750  -0.2257   0.11485   0.11012  -0.0686  0.9699  0.1179  -1.5251   0.0000   0.0000   0.0000  -0.0849
  -9.500  -0.2286   0.11179   0.10708  -0.0735  0.9652  0.1233  -1.5898   0.0000   0.0000   0.0000  -0.1011
  -9.250  -0.2072   0.10820   0.10348  -0.0739  0.9619  0.1269  -1.5151   0.0000   0.0000   0.0000  -0.1388
  -9.000  -0.2215   0.10541   0.10073  -0.0793  0.9559  0.1319  -1.6233   0.0000   0.0000   0.0000  -0.1372
  -8.750  -0.1889   0.10137   0.09665  -0.0799  0.9544  0.1356  -1.5118   0.0000   0.0000   0.0000  -0.2062
  -8.500  -0.2087   0.09926   0.09459  -0.0829  0.9469  0.1404  -1.6086   0.0000   0.0000   0.0000  -0.1766
  -8.250  -0.1837   0.09567   0.09097  -0.0833  0.9442  0.1437  -1.5234   0.0000   0.0000   0.0000  -0.2358
  -8.000  -0.2004   0.09349   0.08884  -0.0859  0.9374  0.1491  -1.5980   0.0000   0.0000   0.0000  -0.2074
  -7.500  -0.1983   0.08922   0.08461  -0.0841  0.9264  0.1568  -1.5586   0.0000   0.0000   0.0000  -0.2014
  -6.000  -0.2848   0.04965   0.04317  -0.1048  0.8887  0.0929  -2.6217   0.0000   0.0000   0.0000  -0.1358
  -5.500  -0.2417   0.04346   0.03605  -0.1065  0.8812  0.0916  -2.5767   0.0000   0.0000   0.0000  -0.2104
  -5.250  -0.2132   0.04150   0.03375  -0.1078  0.8778  0.0943  -2.4883   0.0000   0.0000   0.0000  -0.2777
  -5.000  -0.1922   0.04017   0.03213  -0.1076  0.8736  0.0966  -2.4130   0.0000   0.0000   0.0000  -0.3333
  -4.750  -0.1524   0.03810   0.02932  -0.1102  0.8709  0.0999  -2.3483   0.0000   0.0000   0.0000  -0.5013
  -4.500  -0.1376   0.03775   0.02908  -0.1088  0.8660  0.1036  -2.2536   0.0000   0.0000   0.0000  -0.5713
  -4.250  -0.1009   0.03662   0.02764  -0.1107  0.8630  0.1094  -2.1457   0.0000   0.0000   0.0000  -0.8862
  -4.000  -0.0814   0.03627   0.02712  -0.1098  0.8582  0.1146  -2.0679   0.0000   0.0000   0.0000  -1.1451
  -3.750  -0.0472   0.03564   0.02637  -0.1112  0.8548  0.1233  -1.9628   0.0000   0.0000   0.0000  -2.1798
  -3.500  -0.0264   0.03540   0.02614  -0.1106  0.8501  0.1309  -1.8784   0.0000   0.0000   0.0000  -4.0697
  -3.250   0.0061   0.03494   0.02573  -0.1117  0.8463  0.1434  -1.7675   0.0000   0.0000   0.0000  19.1214
  -3.000   0.0282   0.03484   0.02564  -0.1113  0.8415  0.1575  -1.6797   0.0000   0.0000   0.0000   4.3072
  -2.750   0.0601   0.03445   0.02540  -0.1123  0.8375  0.1804  -1.5770   0.0000   0.0000   0.0000   2.1656
  -2.500   0.0825   0.03438   0.02548  -0.1121  0.8325  0.2095  -1.4947   0.0000   0.0000   0.0000   1.6402
  -2.250   0.1150   0.03403   0.02541  -0.1133  0.8283  0.2610  -1.3896   0.0000   0.0000   0.0000   1.2565
  -2.000   0.1364   0.03406   0.02580  -0.1130  0.8230  0.3214  -1.3018   0.0000   0.0000   0.0000   1.0953
  -1.750   0.1686   0.03378   0.02600  -0.1141  0.8188  0.4228  -1.1895   0.0000   0.0000   0.0000   0.9388
  -1.500   0.1860   0.03401   0.02665  -0.1128  0.8131  0.5184  -1.1097   0.0000   0.0000   0.0000   0.8667
  -1.250   0.2149   0.03395   0.02701  -0.1124  0.8091  0.6340  -1.0087   0.0000   0.0000   0.0000   0.7806
  -1.000   0.2252   0.03446   0.02775  -0.1094  0.8028  0.7181  -0.9437   0.0000   0.0000   0.0000   0.7422
  -0.750   0.2477   0.03431   0.02787  -0.1067  0.7990  0.8219  -0.8549   0.0000   0.0000   0.0000   0.6857
  -0.500   0.2565   0.03469   0.02839  -0.1035  0.7915  1.0001  -0.7983   0.0000   0.0000   0.0000   0.6572
  -0.250   0.2843   0.03532   0.02877  -0.1045  0.7854  1.0001  -0.7149   0.0000   0.0000   0.0000   0.6202
   0.000   0.3193   0.03573   0.02895  -0.1062  0.7802  1.0001  -0.6666   0.0000   0.0000   0.0000   0.5840
   0.250   0.3383   0.03651   0.02958  -0.1057  0.7727  1.0001  -0.6797   0.0000   0.0000   0.0000   0.5631
   0.500   0.3690   0.03700   0.02989  -0.1065  0.7670  1.0001  -0.7015   0.0000   0.0000   0.0000   0.5386
   0.750   0.3963   0.03754   0.03029  -0.1069  0.7607  1.0001  -0.7208   0.0000   0.0000   0.0000   0.5190
   1.000   0.4145   0.03838   0.03103  -0.1062  0.7531  1.0001  -0.7333   0.0000   0.0000   0.0000   0.5049
   1.250   0.4552   0.03851   0.03102  -0.1080  0.7494  1.0001  -0.7630   0.0000   0.0000   0.0000   0.4854
   1.500   0.4694   0.03946   0.03190  -0.1068  0.7409  1.0001  -0.7730   0.0000   0.0000   0.0000   0.4752
   1.750   0.4876   0.04033   0.03268  -0.1061  0.7331  1.0001  -0.7888   0.0000   0.0000   0.0000   0.4647
   2.000   0.5275   0.04037   0.03263  -0.1076  0.7292  1.0001  -0.8231   0.0000   0.0000   0.0000   0.4506
   2.250   0.5433   0.04125   0.03346  -0.1065  0.7204  1.0001  -0.8381   0.0000   0.0000   0.0000   0.4422
   2.500   0.5634   0.04194   0.03410  -0.1058  0.7120  1.0001  -0.8568   0.0000   0.0000   0.0000   0.4336
   2.750   0.5934   0.04221   0.03431  -0.1061  0.7057  1.0001  -0.8839   0.0000   0.0000   0.0000   0.4241
   3.000   0.6231   0.04245   0.03450  -0.1063  0.6992  1.0001  -0.9117   0.0000   0.0000   0.0000   0.4156
   3.500   0.6617   0.04396   0.03596  -0.1048  0.6827  1.0001  -0.9522   0.0000   0.0000   0.0000   0.4025
   3.750   0.6975   0.04384   0.03582  -0.1055  0.6781  1.0001  -0.9907   0.0000   0.0000   0.0000   0.3951
   4.250   0.7333   0.04543   0.03740  -0.1037  0.6605  1.0001  -1.0347   0.0000   0.0000   0.0000   0.3844
   4.500   0.7747   0.04475   0.03671  -0.1046  0.6568  1.0001  -1.0809   0.0000   0.0000   0.0000   0.3777
   5.000   0.8145   0.04571   0.03769  -0.1026  0.6382  1.0001  -1.1325   0.0000   0.0000   0.0000   0.3680
   6.000   0.9152   0.04628   0.03838  -0.1005  0.6086  1.0001  -1.2860   0.0000   0.0000   0.0000   0.3503
   6.250   0.9550   0.04506   0.03720  -0.1007  0.6044  1.0001  -1.3443   0.0000   0.0000   0.0000   0.3456
   6.500   0.9987   0.04331   0.03550  -0.1009  0.6013  1.0001  -1.4082   0.0000   0.0000   0.0000   0.3409
   7.000   1.0751   0.04037   0.03269  -0.1006  0.5924  1.0001  -1.5415   0.0000   0.0000   0.0000   0.3327
   7.250   1.1288   0.03774   0.03015  -0.1017  0.5916  1.0001  -1.6472   0.0000   0.0000   0.0000   0.3289
   7.750   1.1720   0.03739   0.02994  -0.0991  0.5726  1.0001  -1.7741   0.0000   0.0000   0.0000   0.3225
   8.000   1.2434   0.03346   0.02610  -0.1018  0.5710  1.0001  -1.9376   0.0000   0.0000   0.0000   0.3195
   8.250   1.2750   0.03251   0.02522  -0.1013  0.5611  1.0001  -2.0378   0.0000   0.0000   0.0000   0.3167
   8.500   1.3088   0.03157   0.02435  -0.1011  0.5510  1.0001  -2.1442   0.0000   0.0000   0.0000   0.3141
   9.000   1.3838   0.02949   0.02235  -0.1018  0.5278  1.0001  -2.4495   0.0000   0.0000   0.0000   0.3096
   9.250   1.4059   0.02923   0.02211  -0.1003  0.5127  1.0001  -2.5741   0.0000   0.0000   0.0000   0.3070
   9.500   1.4282   0.02897   0.02184  -0.0989  0.4960  1.0001  -2.7017   0.0000   0.0000   0.0000   0.3044
   9.750   1.4440   0.02913   0.02199  -0.0968  0.4786  1.0001  -2.8135   0.0000   0.0000   0.0000   0.3018
  10.000   1.4670   0.02905   0.02184  -0.0956  0.4607  1.0001  -2.9463   0.0000   0.0000   0.0000   0.2994
  10.250   1.4718   0.02990   0.02271  -0.0925  0.4426  1.0001  -3.0305   0.0000   0.0000   0.0000   0.2966
  10.500   1.4828   0.03057   0.02333  -0.0901  0.4244  1.0001  -3.1383   0.0000   0.0000   0.0000   0.2942
  10.750   1.4955   0.03121   0.02388  -0.0880  0.4061  1.0001  -3.2525   0.0000   0.0000   0.0000   0.2918
  11.000   1.4980   0.03242   0.02510  -0.0851  0.3881  1.0001  -3.3362   0.0000   0.0000   0.0000   0.2892
  11.250   1.5031   0.03357   0.02621  -0.0825  0.3703  1.0001  -3.4284   0.0000   0.0000   0.0000   0.2869
  11.500   1.5098   0.03470   0.02725  -0.0802  0.3526  1.0001  -3.5265   0.0000   0.0000   0.0000   0.2846
  11.750   1.5093   0.03629   0.02886  -0.0774  0.3353  1.0001  -3.6012   0.0000   0.0000   0.0000   0.2823
  12.000   1.5102   0.03787   0.03041  -0.0749  0.3185  1.0001  -3.6809   0.0000   0.0000   0.0000   0.2801
  12.250   1.5132   0.03937   0.03181  -0.0726  0.3021  1.0001  -3.7682   0.0000   0.0000   0.0000   0.2779
  12.500   1.5104   0.04135   0.03382  -0.0701  0.2858  1.0001  -3.8350   0.0000   0.0000   0.0000   0.2759
  12.750   1.5099   0.04323   0.03565  -0.0679  0.2701  1.0001  -3.9094   0.0000   0.0000   0.0000   0.2739
  13.000   1.5072   0.04533   0.03774  -0.0657  0.2547  1.0001  -3.9758   0.0000   0.0000   0.0000   0.2720
  13.250   1.5047   0.04751   0.03988  -0.0636  0.2397  1.0001  -4.0423   0.0000   0.0000   0.0000   0.2702
  13.500   1.5037   0.04962   0.04190  -0.0617  0.2250  1.0001  -4.1140   0.0000   0.0000   0.0000   0.2684
  13.750   1.4984   0.05221   0.04453  -0.0598  0.2108  1.0001  -4.1675   0.0000   0.0000   0.0000   0.2667
  14.000   1.4971   0.05451   0.04672  -0.0582  0.1974  1.0001  -4.2392   0.0000   0.0000   0.0000   0.2651
  14.250   1.4923   0.05726   0.04951  -0.0566  0.1847  1.0001  -4.2969   0.0000   0.0000   0.0000   0.2636
  14.500   1.4919   0.05964   0.05178  -0.0552  0.1725  1.0001  -4.3730   0.0000   0.0000   0.0000   0.2622
  14.750   1.4880   0.06251   0.05469  -0.0539  0.1614  1.0001  -4.4313   0.0000   0.0000   0.0000   0.2609
  15.000   1.4849   0.06536   0.05757  -0.0528  0.1512  1.0001  -4.4925   0.0000   0.0000   0.0000   0.2597
  15.250   1.4838   0.06803   0.06020  -0.0518  0.1418  1.0001  -4.5619   0.0000   0.0000   0.0000   0.2585
  15.500   1.4850   0.07050   0.06260  -0.0509  0.1331  1.0001  -4.6398   0.0000   0.0000   0.0000   0.2573
  15.750   1.4860   0.07306   0.06514  -0.0500  0.1249  1.0001  -4.7138   0.0000   0.0000   0.0000   0.2561
  16.000   1.4867   0.07574   0.06785  -0.0493  0.1175  1.0001  -4.7870   0.0000   0.0000   0.0000   0.2550
  16.250   1.4890   0.07827   0.07038  -0.0485  0.1107  1.0001  -4.8703   0.0000   0.0000   0.0000   0.2539
  16.500   1.4907   0.08091   0.07306  -0.0479  0.1046  1.0001  -4.9492   0.0000   0.0000   0.0000   0.2529
  16.750   1.4884   0.08411   0.07642  -0.0475  0.0993  1.0001  -5.0062   0.0000   0.0000   0.0000   0.2521
  17.000   1.4895   0.08692   0.07933  -0.0470  0.0943  1.0001  -5.0850   0.0000   0.0000   0.0000   0.2512
  17.250   1.4942   0.08929   0.08171  -0.0465  0.0896  1.0001  -5.1824   0.0000   0.0000   0.0000   0.2502
  17.500   1.5057   0.09084   0.08317  -0.0458  0.0849  1.0001  -5.3146   0.0000   0.0000   0.0000   0.2490
  17.750   1.4964   0.09515   0.08780  -0.0459  0.0819  1.0001  -5.3325   0.0000   0.0000   0.0000   0.2487
  18.000   1.5084   0.09679   0.08940  -0.0452  0.0783  1.0001  -5.4588   0.0000   0.0000   0.0000   0.2474
  18.250   1.5001   0.10110   0.09399  -0.0456  0.0760  1.0001  -5.4767   0.0000   0.0000   0.0000   0.2472
  18.500   1.5154   0.10236   0.09519  -0.0448  0.0728  1.0001  -5.6338   0.0000   0.0000   0.0000   0.2459
  18.750   1.4969   0.10805   0.10125  -0.0460  0.0715  1.0001  -5.6003   0.0000   0.0000   0.0000   0.2464
  19.000   1.4860   0.11287   0.10631  -0.0471  0.0700  1.0001  -5.6084   0.0000   0.0000   0.0000   0.2468
  19.250   1.5024   0.11390   0.10725  -0.0465  0.0673  1.0001  -5.7769   0.0000   0.0000   0.0000   0.2455
  19.500   1.4773   0.12090   0.11462  -0.0491  0.0668  1.0001  -5.6964   0.0000   0.0000   0.0000   0.2471
  19.750   1.4513   0.12849   0.12255  -0.0524  0.0664  1.0001  -5.6015   0.0000   0.0000   0.0000   0.2493
  20.000   1.4223   0.13709   0.13147  -0.0567  0.0662  1.0001  -5.4775   0.0000   0.0000   0.0000   0.2524


