xflr5 v6.61

 Calculated polar for: QX0026 root

 1 1 Reynolds number fixed          Mach number fixed         

 xtrf =   1.000 (top)        1.000 (bottom)
 Mach =   0.000     Re =     0.420 e 6     Ncrit =   9.000

  alpha     CL        CD       CDp       Cm    Top Xtr Bot Xtr   Cpmin    Chinge    XCp    
 ------- -------- --------- --------- -------- ------- ------- -------- --------- ---------
 -10.000  -0.3180   0.06379   0.06067  -0.0946  0.8369  0.0303  -3.6318   0.0000   0.0000   0.0000  -0.0738
  -9.750  -0.3040   0.06257   0.05946  -0.0961  0.8329  0.0309  -3.4775   0.0000   0.0000   0.0000  -0.0924
  -9.500  -0.4401   0.02631   0.02073  -0.1248  0.8246  0.0291  -5.2820   0.0000   0.0000   0.0000  -0.0532
  -9.250  -0.4204   0.02447   0.01871  -0.1248  0.8210  0.0299  -5.1324   0.0000   0.0000   0.0000  -0.0669
  -9.000  -0.3964   0.02370   0.01787  -0.1249  0.8182  0.0306  -4.9223   0.0000   0.0000   0.0000  -0.0854
  -8.750  -0.3721   0.02285   0.01694  -0.1250  0.8149  0.0314  -4.7283   0.0000   0.0000   0.0000  -0.1065
  -8.500  -0.3484   0.02174   0.01561  -0.1249  0.8117  0.0323  -4.5605   0.0000   0.0000   0.0000  -0.1299
  -8.250  -0.3239   0.02070   0.01430  -0.1248  0.8090  0.0331  -4.3958   0.0000   0.0000   0.0000  -0.1574
  -8.000  -0.2993   0.01961   0.01301  -0.1248  0.8060  0.0340  -4.2269   0.0000   0.0000   0.0000  -0.1899
  -7.750  -0.2736   0.01891   0.01233  -0.1249  0.8027  0.0351  -4.0277   0.0000   0.0000   0.0000  -0.2305
  -7.500  -0.2471   0.01835   0.01169  -0.1249  0.8001  0.0363  -3.8474   0.0000   0.0000   0.0000  -0.2810
  -7.250  -0.2205   0.01772   0.01091  -0.1249  0.7976  0.0375  -3.6820   0.0000   0.0000   0.0000  -0.3437
  -7.000  -0.1942   0.01700   0.01007  -0.1249  0.7943  0.0386  -3.5231   0.0000   0.0000   0.0000  -0.4226
  -6.750  -0.1679   0.01634   0.00943  -0.1249  0.7915  0.0399  -3.3491   0.0000   0.0000   0.0000  -0.5267
  -6.500  -0.1406   0.01590   0.00891  -0.1249  0.7892  0.0415  -3.1782   0.0000   0.0000   0.0000  -0.6759
  -6.250  -0.1131   0.01556   0.00846  -0.1250  0.7862  0.0432  -3.0271   0.0000   0.0000   0.0000  -0.8992
  -6.000  -0.0868   0.01494   0.00790  -0.1250  0.7831  0.0452  -2.8740   0.0000   0.0000   0.0000  -1.2463
  -5.750  -0.0591   0.01458   0.00747  -0.1251  0.7806  0.0474  -2.7222   0.0000   0.0000   0.0000  -1.9431
  -5.500  -0.0319   0.01411   0.00697  -0.1251  0.7781  0.0497  -2.5755   0.0000   0.0000   0.0000  -3.8042
  -5.250  -0.0045   0.01379   0.00666  -0.1252  0.7747  0.0525  -2.4358   0.0000   0.0000   0.0000  -28.5288
  -5.000   0.0231   0.01341   0.00627  -0.1253  0.7719  0.0558  -2.3016   0.0000   0.0000   0.0000   5.8501
  -4.750   0.0515   0.01318   0.00596  -0.1254  0.7696  0.0597  -2.1663   0.0000   0.0000   0.0000   2.7576
  -4.500   0.0789   0.01284   0.00567  -0.1255  0.7665  0.0642  -2.0347   0.0000   0.0000   0.0000   1.8854
  -4.250   0.1067   0.01255   0.00540  -0.1256  0.7634  0.0701  -1.9035   0.0000   0.0000   0.0000   1.4575
  -4.000   0.1351   0.01229   0.00513  -0.1258  0.7609  0.0782  -1.7734   0.0000   0.0000   0.0000   1.2039
  -3.750   0.1634   0.01201   0.00489  -0.1260  0.7586  0.0898  -1.6528   0.0000   0.0000   0.0000   1.0384
  -3.500   0.1912   0.01177   0.00474  -0.1262  0.7551  0.1079  -1.5377   0.0000   0.0000   0.0000   0.9235
  -3.000   0.2480   0.01129   0.00442  -0.1266  0.7499  0.1601  -1.3048   0.0000   0.0000   0.0000   0.7693
  -2.750   0.2761   0.01110   0.00434  -0.1268  0.7469  0.1910  -1.1913   0.0000   0.0000   0.0000   0.7165
  -2.500   0.3041   0.01090   0.00427  -0.1271  0.7436  0.2285  -1.0806   0.0000   0.0000   0.0000   0.6734
  -2.250   0.3325   0.01066   0.00417  -0.1273  0.7409  0.2763  -0.9789   0.0000   0.0000   0.0000   0.6374
  -2.000   0.3612   0.01046   0.00411  -0.1276  0.7384  0.3328  -0.8788   0.0000   0.0000   0.0000   0.6068
  -1.750   0.3887   0.01027   0.00411  -0.1277  0.7345  0.3865  -0.7837   0.0000   0.0000   0.0000   0.5813
  -1.500   0.4169   0.01008   0.00407  -0.1279  0.7313  0.4430  -0.7838   0.0000   0.0000   0.0000   0.5587
  -1.250   0.4455   0.00989   0.00403  -0.1281  0.7289  0.5048  -0.8004   0.0000   0.0000   0.0000   0.5387
  -1.000   0.4726   0.00976   0.00410  -0.1280  0.7250  0.5637  -0.8158   0.0000   0.0000   0.0000   0.5215
  -0.750   0.5002   0.00962   0.00412  -0.1280  0.7218  0.6198  -0.8346   0.0000   0.0000   0.0000   0.5059
  -0.500   0.5283   0.00952   0.00412  -0.1279  0.7191  0.6734  -0.8544   0.0000   0.0000   0.0000   0.4917
  -0.250   0.5553   0.00946   0.00418  -0.1277  0.7151  0.7158  -0.8733   0.0000   0.0000   0.0000   0.4790
   0.000   0.5825   0.00936   0.00416  -0.1274  0.7111  0.7534  -0.8927   0.0000   0.0000   0.0000   0.4674
   0.250   0.6100   0.00926   0.00411  -0.1271  0.7080  0.7917  -0.9124   0.0000   0.0000   0.0000   0.4566
   0.500   0.6346   0.00918   0.00419  -0.1262  0.7034  0.8328  -0.9325   0.0000   0.0000   0.0000   0.4468
   0.750   0.6591   0.00907   0.00418  -0.1252  0.7000  0.8808  -0.9539   0.0000   0.0000   0.0000   0.4374
   1.000   0.6870   0.00898   0.00414  -0.1248  0.6966  0.9409  -0.9774   0.0000   0.0000   0.0000   0.4287
   1.250   0.7305   0.00892   0.00409  -0.1281  0.6918  1.0001  -1.0096   0.0000   0.0000   0.0000   0.4222
   1.500   0.7595   0.00894   0.00402  -0.1284  0.6880  1.0001  -1.0337   0.0000   0.0000   0.0000   0.4155
   1.750   0.7867   0.00900   0.00407  -0.1284  0.6831  1.0001  -1.0587   0.0000   0.0000   0.0000   0.4093
   2.000   0.8151   0.00904   0.00406  -0.1286  0.6789  1.0001  -1.0868   0.0000   0.0000   0.0000   0.4035
   2.250   0.8431   0.00910   0.00408  -0.1287  0.6744  1.0001  -1.1148   0.0000   0.0000   0.0000   0.3980
   2.500   0.8708   0.00914   0.00410  -0.1287  0.6692  1.0001  -1.1430   0.0000   0.0000   0.0000   0.3929
   2.750   0.8991   0.00919   0.00412  -0.1289  0.6648  1.0001  -1.1723   0.0000   0.0000   0.0000   0.3881
   3.000   0.9264   0.00925   0.00417  -0.1288  0.6591  1.0001  -1.2023   0.0000   0.0000   0.0000   0.3835
   3.250   0.9542   0.00930   0.00419  -0.1289  0.6536  1.0001  -1.2361   0.0000   0.0000   0.0000   0.3791
   3.500   0.9814   0.00934   0.00422  -0.1288  0.6473  1.0001  -1.2698   0.0000   0.0000   0.0000   0.3750
   3.750   1.0086   0.00941   0.00430  -0.1288  0.6415  1.0001  -1.3046   0.0000   0.0000   0.0000   0.3711
   4.000   1.0361   0.00949   0.00435  -0.1288  0.6358  1.0001  -1.3398   0.0000   0.0000   0.0000   0.3674
   4.250   1.0627   0.00957   0.00444  -0.1286  0.6291  1.0001  -1.3744   0.0000   0.0000   0.0000   0.3638
   4.500   1.0898   0.00964   0.00450  -0.1285  0.6224  1.0001  -1.4167   0.0000   0.0000   0.0000   0.3603
   4.750   1.1161   0.00973   0.00460  -0.1283  0.6148  1.0001  -1.4604   0.0000   0.0000   0.0000   0.3570
   5.000   1.1421   0.00983   0.00471  -0.1280  0.6067  1.0001  -1.5041   0.0000   0.0000   0.0000   0.3539
   5.250   1.1680   0.00994   0.00481  -0.1277  0.5979  1.0001  -1.5480   0.0000   0.0000   0.0000   0.3508
   5.500   1.1934   0.01006   0.00492  -0.1274  0.5884  1.0001  -1.5918   0.0000   0.0000   0.0000   0.3478
   5.750   1.2184   0.01021   0.00506  -0.1269  0.5783  1.0001  -1.6357   0.0000   0.0000   0.0000   0.3449
   6.000   1.2429   0.01039   0.00523  -0.1264  0.5677  1.0001  -1.6950   0.0000   0.0000   0.0000   0.3421
   6.250   1.2671   0.01058   0.00541  -0.1259  0.5567  1.0001  -1.7584   0.0000   0.0000   0.0000   0.3393
   6.500   1.2907   0.01079   0.00562  -0.1252  0.5451  1.0001  -1.8238   0.0000   0.0000   0.0000   0.3366
   6.750   1.3135   0.01102   0.00585  -0.1244  0.5322  1.0001  -1.8963   0.0000   0.0000   0.0000   0.3340
   7.000   1.3348   0.01131   0.00610  -0.1234  0.5173  1.0001  -1.9738   0.0000   0.0000   0.0000   0.3313
   7.250   1.3540   0.01166   0.00640  -0.1220  0.4990  1.0001  -2.0525   0.0000   0.0000   0.0000   0.3286
   7.500   1.3714   0.01208   0.00675  -0.1203  0.4790  1.0001  -2.1289   0.0000   0.0000   0.0000   0.3258
   7.750   1.3874   0.01255   0.00715  -0.1184  0.4600  1.0001  -2.2044   0.0000   0.0000   0.0000   0.3230
   8.000   1.4017   0.01304   0.00759  -0.1162  0.4418  1.0001  -2.3019   0.0000   0.0000   0.0000   0.3202
   8.250   1.4133   0.01361   0.00809  -0.1136  0.4242  1.0001  -2.3985   0.0000   0.0000   0.0000   0.3173
   8.500   1.4239   0.01429   0.00871  -0.1110  0.4059  1.0001  -2.4932   0.0000   0.0000   0.0000   0.3145
   8.750   1.4338   0.01506   0.00942  -0.1084  0.3866  1.0001  -2.5874   0.0000   0.0000   0.0000   0.3117
   9.000   1.4433   0.01593   0.01022  -0.1060  0.3682  1.0001  -2.6816   0.0000   0.0000   0.0000   0.3092
   9.250   1.4526   0.01688   0.01111  -0.1037  0.3509  1.0001  -2.7758   0.0000   0.0000   0.0000   0.3067
   9.500   1.4620   0.01788   0.01207  -0.1016  0.3336  1.0001  -2.8728   0.0000   0.0000   0.0000   0.3043
   9.750   1.4713   0.01896   0.01310  -0.0996  0.3164  1.0001  -2.9747   0.0000   0.0000   0.0000   0.3021
  10.000   1.4790   0.02018   0.01426  -0.0975  0.3002  1.0001  -3.0730   0.0000   0.0000   0.0000   0.2999
  10.250   1.4870   0.02143   0.01546  -0.0956  0.2838  1.0001  -3.1730   0.0000   0.0000   0.0000   0.2977
  10.500   1.4949   0.02272   0.01671  -0.0937  0.2667  1.0001  -3.2739   0.0000   0.0000   0.0000   0.2957
  10.750   1.5012   0.02416   0.01808  -0.0918  0.2498  1.0001  -3.3705   0.0000   0.0000   0.0000   0.2937
  11.000   1.5060   0.02572   0.01957  -0.0898  0.2342  1.0001  -3.4637   0.0000   0.0000   0.0000   0.2916
  11.250   1.5125   0.02721   0.02102  -0.0880  0.2188  1.0001  -3.5622   0.0000   0.0000   0.0000   0.2897
  11.500   1.5183   0.02875   0.02252  -0.0862  0.2030  1.0001  -3.6596   0.0000   0.0000   0.0000   0.2879
  11.750   1.5222   0.03047   0.02417  -0.0844  0.1887  1.0001  -3.7519   0.0000   0.0000   0.0000   0.2860
  12.000   1.5273   0.03213   0.02580  -0.0827  0.1761  1.0001  -3.8478   0.0000   0.0000   0.0000   0.2842
  12.250   1.5315   0.03388   0.02752  -0.0810  0.1640  1.0001  -3.9418   0.0000   0.0000   0.0000   0.2825
  12.500   1.5372   0.03557   0.02920  -0.0795  0.1509  1.0001  -4.0406   0.0000   0.0000   0.0000   0.2808
  12.750   1.5406   0.03749   0.03108  -0.0779  0.1393  1.0001  -4.1329   0.0000   0.0000   0.0000   0.2791
  13.000   1.5442   0.03945   0.03301  -0.0765  0.1285  1.0001  -4.2253   0.0000   0.0000   0.0000   0.2776
  13.250   1.5467   0.04153   0.03508  -0.0750  0.1186  1.0001  -4.3146   0.0000   0.0000   0.0000   0.2760
  13.500   1.5504   0.04357   0.03711  -0.0737  0.1087  1.0001  -4.4081   0.0000   0.0000   0.0000   0.2745
  13.750   1.5533   0.04574   0.03927  -0.0725  0.0994  1.0001  -4.5018   0.0000   0.0000   0.0000   0.2731
  14.250   1.5564   0.05044   0.04395  -0.0701  0.0845  1.0001  -4.6866   0.0000   0.0000   0.0000   0.2704
  14.500   1.5575   0.05292   0.04645  -0.0691  0.0785  1.0001  -4.7772   0.0000   0.0000   0.0000   0.2692
  14.750   1.5580   0.05551   0.04906  -0.0681  0.0732  1.0001  -4.8655   0.0000   0.0000   0.0000   0.2680
  15.000   1.5595   0.05806   0.05165  -0.0673  0.0682  1.0001  -4.9573   0.0000   0.0000   0.0000   0.2668
  15.250   1.5607   0.06067   0.05430  -0.0665  0.0638  1.0001  -5.0481   0.0000   0.0000   0.0000   0.2658
  15.500   1.5610   0.06343   0.05710  -0.0658  0.0598  1.0001  -5.1344   0.0000   0.0000   0.0000   0.2647
  15.750   1.5593   0.06646   0.06016  -0.0652  0.0565  1.0001  -5.2126   0.0000   0.0000   0.0000   0.2638
  16.000   1.5592   0.06937   0.06313  -0.0647  0.0530  1.0001  -5.2982   0.0000   0.0000   0.0000   0.2629
  16.250   1.5581   0.07245   0.06628  -0.0642  0.0500  1.0001  -5.3835   0.0000   0.0000   0.0000   0.2621
  16.500   1.5541   0.07593   0.06979  -0.0639  0.0474  1.0001  -5.4593   0.0000   0.0000   0.0000   0.2614
  16.750   1.5534   0.07905   0.07300  -0.0637  0.0445  1.0001  -5.5516   0.0000   0.0000   0.0000   0.2606
  17.000   1.5469   0.08294   0.07692  -0.0636  0.0425  1.0001  -5.6165   0.0000   0.0000   0.0000   0.2601
  17.250   1.5457   0.08622   0.08030  -0.0636  0.0402  1.0001  -5.7048   0.0000   0.0000   0.0000   0.2596
  17.500   1.5387   0.09030   0.08443  -0.0637  0.0386  1.0001  -5.7651   0.0000   0.0000   0.0000   0.2592
  17.750   1.5351   0.09401   0.08823  -0.0639  0.0368  1.0001  -5.8385   0.0000   0.0000   0.0000   0.2589
  18.000   1.5306   0.09787   0.09217  -0.0643  0.0353  1.0001  -5.9090   0.0000   0.0000   0.0000   0.2586
  18.250   1.5211   0.10241   0.09675  -0.0649  0.0342  1.0001  -5.9522   0.0000   0.0000   0.0000   0.2586
  18.500   1.5185   0.10607   0.10053  -0.0654  0.0329  1.0001  -6.0323   0.0000   0.0000   0.0000   0.2584
  18.750   1.5143   0.11000   0.10455  -0.0661  0.0318  1.0001  -6.1065   0.0000   0.0000   0.0000   0.2584
  19.000   1.5083   0.11422   0.10883  -0.0670  0.0309  1.0001  -6.1699   0.0000   0.0000   0.0000   0.2585
  19.250   1.5007   0.11866   0.11330  -0.0680  0.0302  1.0001  -6.2206   0.0000   0.0000   0.0000   0.2588
  19.500   1.4985   0.12240   0.11716  -0.0690  0.0294  1.0001  -6.2996   0.0000   0.0000   0.0000   0.2588
  19.750   1.4956   0.12625   0.12111  -0.0701  0.0286  1.0001  -6.3746   0.0000   0.0000   0.0000   0.2590
  20.000   1.4926   0.13010   0.12503  -0.0713  0.0279  1.0001  -6.4492   0.0000   0.0000   0.0000   0.2593


