xflr5 v6.61

 Calculated polar for: QX0026 root

 1 1 Reynolds number fixed          Mach number fixed         

 xtrf =   1.000 (top)        1.000 (bottom)
 Mach =   0.000     Re =     0.920 e 6     Ncrit =   9.000

  alpha     CL        CD       CDp       Cm    Top Xtr Bot Xtr   Cpmin    Chinge    XCp    
 ------- -------- --------- --------- -------- ------- ------- -------- --------- ---------
 -10.000  -0.5304   0.01717   0.01176  -0.1207  0.7855  0.0210  -6.3690   0.0000   0.0000   0.0000   0.0042
  -9.750  -0.5042   0.01669   0.01119  -0.1207  0.7826  0.0214  -6.1279   0.0000   0.0000   0.0000  -0.0079
  -9.500  -0.4797   0.01590   0.01028  -0.1207  0.7800  0.0219  -5.9095   0.0000   0.0000   0.0000  -0.0203
  -9.250  -0.4544   0.01523   0.00956  -0.1208  0.7774  0.0225  -5.6807   0.0000   0.0000   0.0000  -0.0346
  -9.000  -0.4274   0.01485   0.00916  -0.1209  0.7745  0.0230  -5.4368   0.0000   0.0000   0.0000  -0.0520
  -8.750  -0.4001   0.01452   0.00878  -0.1210  0.7718  0.0237  -5.1966   0.0000   0.0000   0.0000  -0.0720
  -8.500  -0.3729   0.01419   0.00836  -0.1211  0.7694  0.0244  -4.9645   0.0000   0.0000   0.0000  -0.0949
  -8.250  -0.3454   0.01384   0.00795  -0.1212  0.7668  0.0250  -4.7374   0.0000   0.0000   0.0000  -0.1218
  -8.000  -0.3187   0.01329   0.00734  -0.1213  0.7641  0.0256  -4.5255   0.0000   0.0000   0.0000  -0.1522
  -7.750  -0.2918   0.01281   0.00683  -0.1214  0.7616  0.0265  -4.3239   0.0000   0.0000   0.0000  -0.1885
  -7.500  -0.2640   0.01254   0.00651  -0.1215  0.7593  0.0273  -4.1167   0.0000   0.0000   0.0000  -0.2341
  -7.250  -0.2359   0.01227   0.00622  -0.1217  0.7566  0.0283  -3.9130   0.0000   0.0000   0.0000  -0.2913
  -7.000  -0.2076   0.01204   0.00594  -0.1219  0.7540  0.0292  -3.7136   0.0000   0.0000   0.0000  -0.3647
  -6.750  -0.1804   0.01155   0.00542  -0.1220  0.7516  0.0303  -3.5317   0.0000   0.0000   0.0000  -0.4565
  -6.500  -0.1522   0.01131   0.00513  -0.1222  0.7493  0.0315  -3.3525   0.0000   0.0000   0.0000  -0.5867
  -6.250  -0.1238   0.01107   0.00488  -0.1224  0.7466  0.0328  -3.1774   0.0000   0.0000   0.0000  -0.7784
  -6.000  -0.0955   0.01079   0.00456  -0.1225  0.7438  0.0342  -3.0087   0.0000   0.0000   0.0000  -1.0821
  -5.750  -0.0672   0.01052   0.00428  -0.1227  0.7413  0.0360  -2.8386   0.0000   0.0000   0.0000  -1.6418
  -5.500  -0.0385   0.01037   0.00408  -0.1229  0.7389  0.0379  -2.6769   0.0000   0.0000   0.0000  -3.0515
  -5.250  -0.0101   0.01008   0.00380  -0.1231  0.7362  0.0401  -2.5284   0.0000   0.0000   0.0000  -12.2984
  -5.000   0.0187   0.00990   0.00361  -0.1234  0.7335  0.0424  -2.3785   0.0000   0.0000   0.0000   7.0652
  -4.750   0.0473   0.00968   0.00337  -0.1236  0.7311  0.0452  -2.2332   0.0000   0.0000   0.0000   2.9378
  -4.500   0.0762   0.00955   0.00320  -0.1238  0.7288  0.0482  -2.0880   0.0000   0.0000   0.0000   1.9182
  -4.250   0.1049   0.00934   0.00303  -0.1240  0.7261  0.0526  -1.9464   0.0000   0.0000   0.0000   1.4616
  -4.000   0.1338   0.00916   0.00287  -0.1243  0.7234  0.0582  -1.8073   0.0000   0.0000   0.0000   1.2006
  -3.750   0.1627   0.00899   0.00271  -0.1245  0.7209  0.0657  -1.6786   0.0000   0.0000   0.0000   1.0319
  -3.500   0.1915   0.00883   0.00257  -0.1248  0.7186  0.0778  -1.5550   0.0000   0.0000   0.0000   0.9145
  -3.250   0.2203   0.00863   0.00246  -0.1251  0.7157  0.0950  -1.4334   0.0000   0.0000   0.0000   0.8279
  -3.000   0.2492   0.00847   0.00236  -0.1254  0.7128  0.1148  -1.3136   0.0000   0.0000   0.0000   0.7612
  -2.750   0.2780   0.00831   0.00227  -0.1256  0.7100  0.1359  -1.1962   0.0000   0.0000   0.0000   0.7083
  -2.500   0.3069   0.00819   0.00220  -0.1259  0.7073  0.1582  -1.0814   0.0000   0.0000   0.0000   0.6653
  -2.250   0.3358   0.00802   0.00213  -0.1262  0.7039  0.1850  -0.9765   0.0000   0.0000   0.0000   0.6299
  -2.000   0.3646   0.00787   0.00207  -0.1265  0.7009  0.2158  -0.8753   0.0000   0.0000   0.0000   0.6000
  -1.750   0.3934   0.00772   0.00201  -0.1268  0.6983  0.2544  -0.7772   0.0000   0.0000   0.0000   0.5745
  -1.500   0.4222   0.00754   0.00199  -0.1271  0.6952  0.3022  -0.7935   0.0000   0.0000   0.0000   0.5526
  -1.250   0.4509   0.00739   0.00196  -0.1274  0.6917  0.3479  -0.8101   0.0000   0.0000   0.0000   0.5334
  -1.000   0.4796   0.00726   0.00193  -0.1277  0.6883  0.3935  -0.8268   0.0000   0.0000   0.0000   0.5165
  -0.750   0.5082   0.00711   0.00193  -0.1279  0.6846  0.4454  -0.8443   0.0000   0.0000   0.0000   0.5015
  -0.500   0.5368   0.00696   0.00193  -0.1281  0.6806  0.4981  -0.8642   0.0000   0.0000   0.0000   0.4880
  -0.250   0.5654   0.00687   0.00194  -0.1284  0.6773  0.5499  -0.8843   0.0000   0.0000   0.0000   0.4759
   0.000   0.5939   0.00675   0.00197  -0.1285  0.6734  0.5994  -0.9043   0.0000   0.0000   0.0000   0.4649
   0.250   0.6223   0.00666   0.00200  -0.1287  0.6694  0.6449  -0.9243   0.0000   0.0000   0.0000   0.4548
   0.500   0.6507   0.00663   0.00203  -0.1288  0.6658  0.6851  -0.9465   0.0000   0.0000   0.0000   0.4456
   0.750   0.6791   0.00657   0.00207  -0.1289  0.6613  0.7191  -0.9701   0.0000   0.0000   0.0000   0.4371
   1.000   0.7072   0.00654   0.00209  -0.1290  0.6571  0.7499  -0.9936   0.0000   0.0000   0.0000   0.4292
   1.250   0.7351   0.00649   0.00213  -0.1289  0.6525  0.7804  -1.0171   0.0000   0.0000   0.0000   0.4220
   1.500   0.7624   0.00643   0.00218  -0.1288  0.6479  0.8174  -1.0403   0.0000   0.0000   0.0000   0.4151
   1.750   0.7882   0.00636   0.00223  -0.1282  0.6436  0.8674  -1.0645   0.0000   0.0000   0.0000   0.4086
   2.000   0.8114   0.00625   0.00228  -0.1270  0.6384  0.9350  -1.0897   0.0000   0.0000   0.0000   0.4020
   2.250   0.8499   0.00624   0.00227  -0.1293  0.6329  1.0001  -1.1244   0.0000   0.0000   0.0000   0.3973
   2.500   0.8782   0.00629   0.00231  -0.1294  0.6269  1.0001  -1.1535   0.0000   0.0000   0.0000   0.3923
   2.750   0.9063   0.00637   0.00235  -0.1296  0.6215  1.0001  -1.1828   0.0000   0.0000   0.0000   0.3876
   3.000   0.9345   0.00644   0.00240  -0.1297  0.6155  1.0001  -1.2131   0.0000   0.0000   0.0000   0.3831
   3.250   0.9625   0.00652   0.00246  -0.1298  0.6096  1.0001  -1.2471   0.0000   0.0000   0.0000   0.3789
   3.500   0.9901   0.00661   0.00253  -0.1299  0.6031  1.0001  -1.2817   0.0000   0.0000   0.0000   0.3748
   3.750   1.0179   0.00670   0.00261  -0.1300  0.5957  1.0001  -1.3169   0.0000   0.0000   0.0000   0.3710
   4.000   1.0452   0.00682   0.00269  -0.1300  0.5879  1.0001  -1.3520   0.0000   0.0000   0.0000   0.3673
   4.250   1.0721   0.00695   0.00279  -0.1299  0.5797  1.0001  -1.3870   0.0000   0.0000   0.0000   0.3638
   4.500   1.0989   0.00709   0.00290  -0.1298  0.5704  1.0001  -1.4299   0.0000   0.0000   0.0000   0.3605
   4.750   1.1256   0.00722   0.00301  -0.1297  0.5604  1.0001  -1.4741   0.0000   0.0000   0.0000   0.3573
   5.000   1.1521   0.00738   0.00314  -0.1296  0.5500  1.0001  -1.5183   0.0000   0.0000   0.0000   0.3541
   5.250   1.1781   0.00755   0.00328  -0.1294  0.5388  1.0001  -1.5624   0.0000   0.0000   0.0000   0.3512
   5.750   1.2287   0.00795   0.00361  -0.1287  0.5139  1.0001  -1.6504   0.0000   0.0000   0.0000   0.3454
   6.000   1.2533   0.00819   0.00381  -0.1283  0.5000  1.0001  -1.7125   0.0000   0.0000   0.0000   0.3427
   6.250   1.2764   0.00849   0.00404  -0.1276  0.4832  1.0001  -1.7748   0.0000   0.0000   0.0000   0.3399
   6.500   1.2977   0.00887   0.00432  -0.1266  0.4606  1.0001  -1.8379   0.0000   0.0000   0.0000   0.3371
   6.750   1.3181   0.00929   0.00464  -0.1255  0.4373  1.0001  -1.9091   0.0000   0.0000   0.0000   0.3344
   7.000   1.3384   0.00971   0.00496  -0.1243  0.4178  1.0001  -1.9871   0.0000   0.0000   0.0000   0.3317
   7.250   1.3586   0.01011   0.00529  -0.1232  0.3991  1.0001  -2.0675   0.0000   0.0000   0.0000   0.3291
   7.500   1.3771   0.01056   0.00567  -0.1218  0.3802  1.0001  -2.1460   0.0000   0.0000   0.0000   0.3265
   7.750   1.3930   0.01108   0.00609  -0.1199  0.3606  1.0001  -2.2255   0.0000   0.0000   0.0000   0.3238
   8.000   1.4068   0.01161   0.00655  -0.1176  0.3418  1.0001  -2.3262   0.0000   0.0000   0.0000   0.3209
   8.250   1.4213   0.01217   0.00703  -0.1156  0.3234  1.0001  -2.4299   0.0000   0.0000   0.0000   0.3183
   8.500   1.4347   0.01281   0.00760  -0.1136  0.3055  1.0001  -2.5326   0.0000   0.0000   0.0000   0.3157
   8.750   1.4475   0.01353   0.00824  -0.1115  0.2886  1.0001  -2.6347   0.0000   0.0000   0.0000   0.3131
   9.000   1.4599   0.01431   0.00894  -0.1095  0.2708  1.0001  -2.7370   0.0000   0.0000   0.0000   0.3107
   9.250   1.4716   0.01517   0.00972  -0.1076  0.2524  1.0001  -2.8435   0.0000   0.0000   0.0000   0.3084
   9.500   1.4826   0.01612   0.01060  -0.1056  0.2357  1.0001  -2.9507   0.0000   0.0000   0.0000   0.3061
   9.750   1.4940   0.01709   0.01151  -0.1038  0.2205  1.0001  -3.0601   0.0000   0.0000   0.0000   0.3039
  10.000   1.5053   0.01810   0.01246  -0.1021  0.2050  1.0001  -3.1705   0.0000   0.0000   0.0000   0.3018
  10.500   1.5251   0.02037   0.01460  -0.0986  0.1769  1.0001  -3.3868   0.0000   0.0000   0.0000   0.2977
  10.750   1.5352   0.02154   0.01573  -0.0969  0.1647  1.0001  -3.4970   0.0000   0.0000   0.0000   0.2957
  11.000   1.5452   0.02273   0.01687  -0.0953  0.1515  1.0001  -3.6080   0.0000   0.0000   0.0000   0.2938
  11.250   1.5532   0.02406   0.01814  -0.0936  0.1392  1.0001  -3.7139   0.0000   0.0000   0.0000   0.2919
  11.500   1.5615   0.02539   0.01943  -0.0919  0.1287  1.0001  -3.8219   0.0000   0.0000   0.0000   0.2900
  11.750   1.5692   0.02679   0.02080  -0.0903  0.1190  1.0001  -3.9284   0.0000   0.0000   0.0000   0.2882
  12.000   1.5768   0.02819   0.02218  -0.0886  0.1089  1.0001  -4.0358   0.0000   0.0000   0.0000   0.2864
  12.250   1.5830   0.02973   0.02367  -0.0869  0.0983  1.0001  -4.1393   0.0000   0.0000   0.0000   0.2846
  12.500   1.5889   0.03131   0.02522  -0.0853  0.0889  1.0001  -4.2424   0.0000   0.0000   0.0000   0.2828
  12.750   1.5946   0.03293   0.02682  -0.0837  0.0812  1.0001  -4.3456   0.0000   0.0000   0.0000   0.2811
  13.000   1.6009   0.03457   0.02845  -0.0822  0.0748  1.0001  -4.4509   0.0000   0.0000   0.0000   0.2795
  13.250   1.6074   0.03622   0.03011  -0.0808  0.0692  1.0001  -4.5579   0.0000   0.0000   0.0000   0.2779
  13.500   1.6139   0.03792   0.03180  -0.0796  0.0642  1.0001  -4.6709   0.0000   0.0000   0.0000   0.2764
  13.750   1.6201   0.03965   0.03355  -0.0783  0.0597  1.0001  -4.7855   0.0000   0.0000   0.0000   0.2749
  14.000   1.6260   0.04145   0.03537  -0.0771  0.0557  1.0001  -4.8993   0.0000   0.0000   0.0000   0.2734
  14.250   1.6311   0.04337   0.03729  -0.0759  0.0519  1.0001  -5.0108   0.0000   0.0000   0.0000   0.2720
  14.500   1.6374   0.04521   0.03916  -0.0749  0.0483  1.0001  -5.1279   0.0000   0.0000   0.0000   0.2706
  14.750   1.6429   0.04716   0.04114  -0.0739  0.0451  1.0001  -5.2419   0.0000   0.0000   0.0000   0.2693
  15.000   1.6469   0.04927   0.04327  -0.0728  0.0420  1.0001  -5.3507   0.0000   0.0000   0.0000   0.2680
  15.250   1.6508   0.05142   0.04545  -0.0719  0.0390  1.0001  -5.4595   0.0000   0.0000   0.0000   0.2668
  15.500   1.6547   0.05362   0.04769  -0.0710  0.0364  1.0001  -5.5679   0.0000   0.0000   0.0000   0.2656
  15.750   1.6565   0.05607   0.05017  -0.0701  0.0338  1.0001  -5.6760   0.0000   0.0000   0.0000   0.2644
  16.000   1.6593   0.05847   0.05261  -0.0693  0.0314  1.0001  -5.7956   0.0000   0.0000   0.0000   0.2633
  16.250   1.6606   0.06106   0.05524  -0.0686  0.0293  1.0001  -5.9087   0.0000   0.0000   0.0000   0.2622
  16.500   1.6612   0.06375   0.05797  -0.0679  0.0274  1.0001  -6.0184   0.0000   0.0000   0.0000   0.2612
  16.750   1.6612   0.06655   0.06083  -0.0673  0.0259  1.0001  -6.1250   0.0000   0.0000   0.0000   0.2602
  17.000   1.6616   0.06936   0.06370  -0.0668  0.0246  1.0001  -6.2342   0.0000   0.0000   0.0000   0.2593
  17.250   1.6591   0.07256   0.06695  -0.0664  0.0235  1.0001  -6.3296   0.0000   0.0000   0.0000   0.2585
  17.500   1.6583   0.07561   0.07008  -0.0661  0.0226  1.0001  -6.4392   0.0000   0.0000   0.0000   0.2577
  17.750   1.6578   0.07866   0.07320  -0.0659  0.0218  1.0001  -6.5510   0.0000   0.0000   0.0000   0.2570
  18.000   1.6554   0.08195   0.07656  -0.0657  0.0211  1.0001  -6.6529   0.0000   0.0000   0.0000   0.2563
  18.250   1.6506   0.08559   0.08027  -0.0657  0.0204  1.0001  -6.7418   0.0000   0.0000   0.0000   0.2557
  18.500   1.6435   0.08963   0.08438  -0.0658  0.0199  1.0001  -6.8150   0.0000   0.0000   0.0000   0.2553
  18.750   1.6420   0.09296   0.08781  -0.0660  0.0194  1.0001  -6.9208   0.0000   0.0000   0.0000   0.2548
  19.000   1.6391   0.09652   0.09146  -0.0663  0.0190  1.0001  -7.0179   0.0000   0.0000   0.0000   0.2544
  19.250   1.6351   0.10026   0.09528  -0.0667  0.0186  1.0001  -7.1083   0.0000   0.0000   0.0000   0.2541
  19.500   1.6297   0.10420   0.09930  -0.0672  0.0182  1.0001  -7.1900   0.0000   0.0000   0.0000   0.2540
  19.750   1.6232   0.10833   0.10352  -0.0679  0.0178  1.0001  -7.2633   0.0000   0.0000   0.0000   0.2539
  20.000   1.6146   0.11284   0.10810  -0.0688  0.0175  1.0001  -7.3218   0.0000   0.0000   0.0000   0.2540


