xflr5 v6.61

 Calculated polar for: QX0026 root

 1 1 Reynolds number fixed          Mach number fixed         

 xtrf =   1.000 (top)        1.000 (bottom)
 Mach =   0.000     Re =     0.720 e 6     Ncrit =   9.000

  alpha     CL        CD       CDp       Cm    Top Xtr Bot Xtr   Cpmin    Chinge    XCp    
 ------- -------- --------- --------- -------- ------- ------- -------- --------- ---------
 -10.000  -0.5211   0.01933   0.01383  -0.1216  0.7983  0.0226  -6.2259   0.0000   0.0000   0.0000  -0.0018
  -9.750  -0.4958   0.01876   0.01321  -0.1217  0.7950  0.0231  -5.9894   0.0000   0.0000   0.0000  -0.0141
  -9.500  -0.4704   0.01817   0.01253  -0.1217  0.7920  0.0237  -5.7605   0.0000   0.0000   0.0000  -0.0277
  -9.250  -0.4447   0.01761   0.01185  -0.1217  0.7894  0.0243  -5.5360   0.0000   0.0000   0.0000  -0.0430
  -9.000  -0.4182   0.01715   0.01128  -0.1218  0.7866  0.0250  -5.3099   0.0000   0.0000   0.0000  -0.0608
  -8.750  -0.3930   0.01636   0.01038  -0.1218  0.7836  0.0256  -5.1028   0.0000   0.0000   0.0000  -0.0799
  -8.500  -0.3673   0.01573   0.00972  -0.1219  0.7810  0.0263  -4.8838   0.0000   0.0000   0.0000  -0.1023
  -8.250  -0.3405   0.01531   0.00925  -0.1220  0.7786  0.0270  -4.6606   0.0000   0.0000   0.0000  -0.1293
  -8.000  -0.3134   0.01488   0.00878  -0.1221  0.7757  0.0278  -4.4433   0.0000   0.0000   0.0000  -0.1614
  -7.750  -0.2862   0.01448   0.00829  -0.1222  0.7730  0.0286  -4.2441   0.0000   0.0000   0.0000  -0.1998
  -7.500  -0.2587   0.01412   0.00783  -0.1222  0.7706  0.0294  -4.0494   0.0000   0.0000   0.0000  -0.2469
  -7.250  -0.2324   0.01352   0.00722  -0.1223  0.7681  0.0306  -3.8617   0.0000   0.0000   0.0000  -0.3023
  -7.000  -0.2047   0.01318   0.00688  -0.1225  0.7652  0.0317  -3.6671   0.0000   0.0000   0.0000  -0.3763
  -6.750  -0.1768   0.01287   0.00650  -0.1226  0.7626  0.0328  -3.4788   0.0000   0.0000   0.0000  -0.4742
  -6.500  -0.1490   0.01252   0.00608  -0.1227  0.7603  0.0339  -3.3101   0.0000   0.0000   0.0000  -0.6084
  -6.250  -0.1216   0.01211   0.00566  -0.1228  0.7579  0.0354  -3.1431   0.0000   0.0000   0.0000  -0.8008
  -6.000  -0.0934   0.01185   0.00539  -0.1230  0.7550  0.0370  -2.9737   0.0000   0.0000   0.0000  -1.1171
  -5.750  -0.0653   0.01155   0.00504  -0.1232  0.7523  0.0389  -2.8106   0.0000   0.0000   0.0000  -1.7051
  -5.500  -0.0371   0.01127   0.00475  -0.1233  0.7499  0.0410  -2.6503   0.0000   0.0000   0.0000  -3.1872
  -5.250  -0.0085   0.01109   0.00452  -0.1235  0.7473  0.0431  -2.5034   0.0000   0.0000   0.0000  -14.6745
  -5.000   0.0195   0.01076   0.00421  -0.1237  0.7444  0.0458  -2.3600   0.0000   0.0000   0.0000   6.7718
  -4.750   0.0482   0.01057   0.00399  -0.1239  0.7418  0.0487  -2.2165   0.0000   0.0000   0.0000   2.8919
  -4.500   0.0768   0.01035   0.00376  -0.1241  0.7396  0.0526  -2.0743   0.0000   0.0000   0.0000   1.9093
  -4.250   0.1054   0.01014   0.00356  -0.1243  0.7369  0.0573  -1.9353   0.0000   0.0000   0.0000   1.4596
  -4.000   0.1340   0.00993   0.00337  -0.1246  0.7341  0.0633  -1.7989   0.0000   0.0000   0.0000   1.2011
  -3.750   0.1628   0.00974   0.00319  -0.1248  0.7315  0.0722  -1.6723   0.0000   0.0000   0.0000   1.0331
  -3.500   0.1916   0.00954   0.00303  -0.1251  0.7292  0.0863  -1.5502   0.0000   0.0000   0.0000   0.9158
  -3.250   0.2201   0.00934   0.00292  -0.1253  0.7264  0.1058  -1.4299   0.0000   0.0000   0.0000   0.8295
  -3.000   0.2488   0.00916   0.00282  -0.1256  0.7235  0.1279  -1.3113   0.0000   0.0000   0.0000   0.7629
  -2.750   0.2777   0.00900   0.00272  -0.1259  0.7208  0.1508  -1.1944   0.0000   0.0000   0.0000   0.7098
  -2.500   0.3066   0.00886   0.00263  -0.1261  0.7183  0.1773  -1.0800   0.0000   0.0000   0.0000   0.6667
  -2.000   0.3637   0.00849   0.00250  -0.1267  0.7116  0.2459  -0.8762   0.0000   0.0000   0.0000   0.6014
  -1.750   0.3925   0.00830   0.00244  -0.1270  0.7089  0.2943  -0.7784   0.0000   0.0000   0.0000   0.5759
  -1.500   0.4211   0.00815   0.00242  -0.1273  0.7059  0.3434  -0.7915   0.0000   0.0000   0.0000   0.5538
  -1.250   0.4497   0.00799   0.00241  -0.1275  0.7026  0.3904  -0.8080   0.0000   0.0000   0.0000   0.5346
  -1.000   0.4783   0.00783   0.00238  -0.1278  0.6995  0.4427  -0.8246   0.0000   0.0000   0.0000   0.5175
  -0.750   0.5067   0.00768   0.00238  -0.1280  0.6961  0.4995  -0.8423   0.0000   0.0000   0.0000   0.5024
  -0.500   0.5350   0.00753   0.00239  -0.1281  0.6919  0.5528  -0.8621   0.0000   0.0000   0.0000   0.4889
  -0.250   0.5633   0.00741   0.00238  -0.1282  0.6885  0.6048  -0.8821   0.0000   0.0000   0.0000   0.4766
   0.000   0.5915   0.00732   0.00243  -0.1283  0.6848  0.6537  -0.9019   0.0000   0.0000   0.0000   0.4654
   0.250   0.6197   0.00726   0.00246  -0.1284  0.6809  0.6940  -0.9217   0.0000   0.0000   0.0000   0.4552
   0.500   0.6479   0.00722   0.00247  -0.1284  0.6773  0.7283  -0.9439   0.0000   0.0000   0.0000   0.4459
   0.750   0.6757   0.00716   0.00251  -0.1284  0.6730  0.7611  -0.9671   0.0000   0.0000   0.0000   0.4373
   1.250   0.7298   0.00704   0.00257  -0.1278  0.6649  0.8347  -1.0130   0.0000   0.0000   0.0000   0.4218
   1.500   0.7542   0.00693   0.00262  -0.1269  0.6599  0.8875  -1.0345   0.0000   0.0000   0.0000   0.4145
   1.750   0.7816   0.00685   0.00261  -0.1265  0.6559  0.9577  -1.0596   0.0000   0.0000   0.0000   0.4078
   2.000   0.8199   0.00684   0.00262  -0.1288  0.6508  1.0001  -1.0939   0.0000   0.0000   0.0000   0.4028
   2.250   0.8481   0.00691   0.00263  -0.1290  0.6462  1.0001  -1.1221   0.0000   0.0000   0.0000   0.3974
   2.500   0.8760   0.00696   0.00268  -0.1291  0.6403  1.0001  -1.1508   0.0000   0.0000   0.0000   0.3923
   2.750   0.9040   0.00703   0.00270  -0.1292  0.6348  1.0001  -1.1799   0.0000   0.0000   0.0000   0.3875
   3.000   0.9319   0.00709   0.00277  -0.1293  0.6287  1.0001  -1.2102   0.0000   0.0000   0.0000   0.3830
   3.250   0.9597   0.00718   0.00281  -0.1294  0.6236  1.0001  -1.2440   0.0000   0.0000   0.0000   0.3788
   3.500   0.9876   0.00724   0.00289  -0.1295  0.6172  1.0001  -1.2785   0.0000   0.0000   0.0000   0.3748
   3.750   1.0151   0.00734   0.00296  -0.1295  0.6108  1.0001  -1.3136   0.0000   0.0000   0.0000   0.3709
   4.000   1.0424   0.00743   0.00303  -0.1295  0.6036  1.0001  -1.3487   0.0000   0.0000   0.0000   0.3672
   4.250   1.0696   0.00753   0.00312  -0.1294  0.5958  1.0001  -1.3839   0.0000   0.0000   0.0000   0.3637
   4.500   1.0964   0.00765   0.00323  -0.1293  0.5876  1.0001  -1.4265   0.0000   0.0000   0.0000   0.3603
   4.750   1.1228   0.00779   0.00334  -0.1292  0.5785  1.0001  -1.4704   0.0000   0.0000   0.0000   0.3571
   5.000   1.1490   0.00795   0.00346  -0.1290  0.5690  1.0001  -1.5143   0.0000   0.0000   0.0000   0.3539
   5.250   1.1748   0.00811   0.00360  -0.1287  0.5588  1.0001  -1.5583   0.0000   0.0000   0.0000   0.3509
   5.500   1.2004   0.00828   0.00375  -0.1284  0.5478  1.0001  -1.6023   0.0000   0.0000   0.0000   0.3480
   5.750   1.2258   0.00847   0.00392  -0.1281  0.5363  1.0001  -1.6464   0.0000   0.0000   0.0000   0.3452
   6.000   1.2505   0.00867   0.00410  -0.1277  0.5237  1.0001  -1.7080   0.0000   0.0000   0.0000   0.3424
   6.250   1.2745   0.00891   0.00431  -0.1271  0.5099  1.0001  -1.7713   0.0000   0.0000   0.0000   0.3397
   6.750   1.3174   0.00961   0.00485  -0.1252  0.4722  1.0001  -1.9069   0.0000   0.0000   0.0000   0.3342
   7.000   1.3366   0.01004   0.00518  -0.1238  0.4499  1.0001  -1.9825   0.0000   0.0000   0.0000   0.3315
   7.250   1.3559   0.01046   0.00553  -0.1225  0.4305  1.0001  -2.0614   0.0000   0.0000   0.0000   0.3288
   7.500   1.3744   0.01090   0.00591  -0.1211  0.4122  1.0001  -2.1397   0.0000   0.0000   0.0000   0.3262
   7.750   1.3906   0.01139   0.00632  -0.1192  0.3934  1.0001  -2.2171   0.0000   0.0000   0.0000   0.3235
   8.000   1.4029   0.01197   0.00681  -0.1167  0.3740  1.0001  -2.3142   0.0000   0.0000   0.0000   0.3205
   8.250   1.4160   0.01258   0.00735  -0.1145  0.3551  1.0001  -2.4142   0.0000   0.0000   0.0000   0.3178
   8.500   1.4295   0.01322   0.00792  -0.1124  0.3372  1.0001  -2.5166   0.0000   0.0000   0.0000   0.3152
   8.750   1.4421   0.01395   0.00858  -0.1104  0.3194  1.0001  -2.6179   0.0000   0.0000   0.0000   0.3127
   9.000   1.4531   0.01480   0.00935  -0.1083  0.3019  1.0001  -2.7164   0.0000   0.0000   0.0000   0.3102
   9.250   1.4650   0.01566   0.01016  -0.1063  0.2849  1.0001  -2.8201   0.0000   0.0000   0.0000   0.3078
   9.500   1.4765   0.01660   0.01103  -0.1045  0.2674  1.0001  -2.9280   0.0000   0.0000   0.0000   0.3056
   9.750   1.4864   0.01766   0.01201  -0.1026  0.2492  1.0001  -3.0329   0.0000   0.0000   0.0000   0.3034
  10.000   1.4952   0.01884   0.01311  -0.1006  0.2331  1.0001  -3.1355   0.0000   0.0000   0.0000   0.3012
  10.250   1.5054   0.01996   0.01418  -0.0989  0.2178  1.0001  -3.2434   0.0000   0.0000   0.0000   0.2991
  10.500   1.5151   0.02113   0.01529  -0.0972  0.2018  1.0001  -3.3509   0.0000   0.0000   0.0000   0.2971
  10.750   1.5231   0.02245   0.01654  -0.0953  0.1870  1.0001  -3.4541   0.0000   0.0000   0.0000   0.2951
  11.000   1.5315   0.02375   0.01780  -0.0936  0.1746  1.0001  -3.5594   0.0000   0.0000   0.0000   0.2932
  11.250   1.5401   0.02506   0.01908  -0.0919  0.1629  1.0001  -3.6664   0.0000   0.0000   0.0000   0.2913
  11.500   1.5484   0.02642   0.02038  -0.0903  0.1496  1.0001  -3.7733   0.0000   0.0000   0.0000   0.2894
  11.750   1.5551   0.02789   0.02181  -0.0886  0.1378  1.0001  -3.8760   0.0000   0.0000   0.0000   0.2876
  12.000   1.5614   0.02941   0.02330  -0.0869  0.1274  1.0001  -3.9781   0.0000   0.0000   0.0000   0.2858
  12.250   1.5673   0.03099   0.02485  -0.0852  0.1178  1.0001  -4.0795   0.0000   0.0000   0.0000   0.2840
  12.500   1.5738   0.03255   0.02639  -0.0836  0.1076  1.0001  -4.1837   0.0000   0.0000   0.0000   0.2823
  12.750   1.5785   0.03428   0.02808  -0.0820  0.0976  1.0001  -4.2826   0.0000   0.0000   0.0000   0.2806
  13.000   1.5837   0.03604   0.02981  -0.0805  0.0885  1.0001  -4.3834   0.0000   0.0000   0.0000   0.2789
  13.250   1.5884   0.03787   0.03164  -0.0791  0.0811  1.0001  -4.4829   0.0000   0.0000   0.0000   0.2774
  13.500   1.5932   0.03973   0.03349  -0.0777  0.0748  1.0001  -4.5855   0.0000   0.0000   0.0000   0.2758
  13.750   1.5983   0.04160   0.03537  -0.0765  0.0694  1.0001  -4.6943   0.0000   0.0000   0.0000   0.2744
  14.000   1.6034   0.04352   0.03730  -0.0753  0.0645  1.0001  -4.8039   0.0000   0.0000   0.0000   0.2729
  14.250   1.6083   0.04550   0.03930  -0.0742  0.0601  1.0001  -4.9127   0.0000   0.0000   0.0000   0.2715
  14.500   1.6124   0.04758   0.04140  -0.0731  0.0561  1.0001  -5.0194   0.0000   0.0000   0.0000   0.2702
  14.750   1.6161   0.04973   0.04358  -0.0720  0.0524  1.0001  -5.1247   0.0000   0.0000   0.0000   0.2689
  15.000   1.6206   0.05184   0.04573  -0.0711  0.0489  1.0001  -5.2333   0.0000   0.0000   0.0000   0.2677
  15.250   1.6238   0.05413   0.04805  -0.0702  0.0457  1.0001  -5.3370   0.0000   0.0000   0.0000   0.2664
  15.750   1.6289   0.05896   0.05295  -0.0686  0.0397  1.0001  -5.5419   0.0000   0.0000   0.0000   0.2642
  16.000   1.6300   0.06160   0.05563  -0.0679  0.0372  1.0001  -5.6479   0.0000   0.0000   0.0000   0.2631
  16.250   1.6299   0.06438   0.05845  -0.0672  0.0348  1.0001  -5.7520   0.0000   0.0000   0.0000   0.2621
  16.500   1.6303   0.06716   0.06129  -0.0666  0.0326  1.0001  -5.8579   0.0000   0.0000   0.0000   0.2612
  16.750   1.6282   0.07029   0.06446  -0.0661  0.0307  1.0001  -5.9520   0.0000   0.0000   0.0000   0.2603
  17.000   1.6278   0.07328   0.06753  -0.0658  0.0290  1.0001  -6.0532   0.0000   0.0000   0.0000   0.2595
  17.250   1.6258   0.07651   0.07081  -0.0655  0.0276  1.0001  -6.1473   0.0000   0.0000   0.0000   0.2587
  17.500   1.6199   0.08024   0.07461  -0.0653  0.0265  1.0001  -6.2206   0.0000   0.0000   0.0000   0.2581
  17.750   1.6193   0.08336   0.07782  -0.0651  0.0255  1.0001  -6.3261   0.0000   0.0000   0.0000   0.2574
  18.000   1.6162   0.08685   0.08138  -0.0652  0.0246  1.0001  -6.4201   0.0000   0.0000   0.0000   0.2569
  18.250   1.6108   0.09070   0.08530  -0.0653  0.0238  1.0001  -6.5008   0.0000   0.0000   0.0000   0.2565
  18.500   1.6014   0.09514   0.08982  -0.0657  0.0232  1.0001  -6.5571   0.0000   0.0000   0.0000   0.2563
  18.750   1.5984   0.09879   0.09357  -0.0660  0.0226  1.0001  -6.6481   0.0000   0.0000   0.0000   0.2560
  19.000   1.5946   0.10255   0.09743  -0.0665  0.0221  1.0001  -6.7344   0.0000   0.0000   0.0000   0.2557
  19.250   1.5897   0.10647   0.10144  -0.0671  0.0216  1.0001  -6.8144   0.0000   0.0000   0.0000   0.2556
  19.500   1.5837   0.11061   0.10567  -0.0679  0.0211  1.0001  -6.8864   0.0000   0.0000   0.0000   0.2556
  19.750   1.5763   0.11503   0.11016  -0.0689  0.0207  1.0001  -6.9476   0.0000   0.0000   0.0000   0.2558
  20.000   1.5665   0.11986   0.11506  -0.0701  0.0203  1.0001  -6.9914   0.0000   0.0000   0.0000   0.2562


