xflr5 v6.61

 Calculated polar for: QX0026 root

 1 1 Reynolds number fixed          Mach number fixed         

 xtrf =   1.000 (top)        1.000 (bottom)
 Mach =   0.000     Re =     0.340 e 6     Ncrit =   9.000

  alpha     CL        CD       CDp       Cm    Top Xtr Bot Xtr   Cpmin    Chinge    XCp    
 ------- -------- --------- --------- -------- ------- ------- -------- --------- ---------
 -10.000  -0.3638   0.04861   0.04510  -0.1163  0.8514  0.0328  -4.2751   0.0000   0.0000   0.0000  -0.0938
  -9.750  -0.3941   0.04047   0.03646  -0.1236  0.8454  0.0323  -4.5690   0.0000   0.0000   0.0000  -0.0852
  -9.500  -0.4037   0.03431   0.02967  -0.1260  0.8403  0.0326  -4.7415   0.0000   0.0000   0.0000  -0.0828
  -9.250  -0.3985   0.03025   0.02489  -0.1265  0.8367  0.0333  -4.7909   0.0000   0.0000   0.0000  -0.0880
  -9.000  -0.3834   0.02759   0.02183  -0.1266  0.8328  0.0340  -4.7179   0.0000   0.0000   0.0000  -0.1011
  -8.750  -0.3608   0.02634   0.02053  -0.1267  0.8294  0.0347  -4.5385   0.0000   0.0000   0.0000  -0.1224
  -8.500  -0.3376   0.02526   0.01931  -0.1267  0.8268  0.0354  -4.3644   0.0000   0.0000   0.0000  -0.1471
  -8.250  -0.3148   0.02393   0.01777  -0.1267  0.8230  0.0363  -4.2156   0.0000   0.0000   0.0000  -0.1750
  -8.000  -0.2914   0.02266   0.01618  -0.1266  0.8199  0.0375  -4.0723   0.0000   0.0000   0.0000  -0.2079
  -7.750  -0.2673   0.02142   0.01463  -0.1264  0.8173  0.0387  -3.9222   0.0000   0.0000   0.0000  -0.2477
  -7.500  -0.2419   0.02060   0.01382  -0.1265  0.8136  0.0398  -3.7489   0.0000   0.0000   0.0000  -0.2991
  -7.250  -0.2159   0.01985   0.01298  -0.1265  0.8107  0.0410  -3.5871   0.0000   0.0000   0.0000  -0.3640
  -7.000  -0.1895   0.01908   0.01201  -0.1264  0.8084  0.0423  -3.4360   0.0000   0.0000   0.0000  -0.4476
  -6.750  -0.1636   0.01826   0.01107  -0.1263  0.8049  0.0437  -3.2875   0.0000   0.0000   0.0000  -0.5563
  -6.500  -0.1371   0.01769   0.01053  -0.1264  0.8018  0.0454  -3.1151   0.0000   0.0000   0.0000  -0.7106
  -6.250  -0.1099   0.01722   0.00993  -0.1264  0.7994  0.0475  -2.9666   0.0000   0.0000   0.0000  -0.9467
  -6.000  -0.0835   0.01658   0.00925  -0.1263  0.7964  0.0494  -2.8279   0.0000   0.0000   0.0000  -1.3215
  -5.750  -0.0566   0.01612   0.00881  -0.1263  0.7931  0.0516  -2.6801   0.0000   0.0000   0.0000  -2.0620
  -5.500  -0.0292   0.01568   0.00826  -0.1263  0.7905  0.0542  -2.5398   0.0000   0.0000   0.0000  -4.2268
  -5.250  -0.0022   0.01525   0.00787  -0.1264  0.7879  0.0574  -2.3993   0.0000   0.0000   0.0000  -60.2815
  -5.000   0.0246   0.01486   0.00748  -0.1263  0.7843  0.0609  -2.2733   0.0000   0.0000   0.0000   5.5384
  -4.750   0.0523   0.01454   0.00712  -0.1264  0.7814  0.0651  -2.1438   0.0000   0.0000   0.0000   2.7362
  -4.500   0.0801   0.01416   0.00674  -0.1265  0.7792  0.0701  -2.0139   0.0000   0.0000   0.0000   1.8723
  -4.250   0.1071   0.01388   0.00650  -0.1265  0.7756  0.0766  -1.8880   0.0000   0.0000   0.0000   1.4622
  -4.000   0.1349   0.01359   0.00622  -0.1266  0.7725  0.0853  -1.7626   0.0000   0.0000   0.0000   1.2115
  -3.750   0.1631   0.01327   0.00594  -0.1268  0.7701  0.0980  -1.6444   0.0000   0.0000   0.0000   1.0452
  -3.500   0.1906   0.01300   0.00576  -0.1269  0.7671  0.1171  -1.5320   0.0000   0.0000   0.0000   0.9297
  -3.250   0.2182   0.01274   0.00562  -0.1271  0.7637  0.1431  -1.4190   0.0000   0.0000   0.0000   0.8436
  -3.000   0.2465   0.01249   0.00546  -0.1273  0.7611  0.1739  -1.3044   0.0000   0.0000   0.0000   0.7755
  -2.750   0.2750   0.01226   0.00531  -0.1275  0.7588  0.2097  -1.1906   0.0000   0.0000   0.0000   0.7210
  -2.500   0.3019   0.01206   0.00530  -0.1276  0.7548  0.2529  -1.0833   0.0000   0.0000   0.0000   0.6787
  -2.250   0.3300   0.01182   0.00523  -0.1279  0.7519  0.3090  -0.9826   0.0000   0.0000   0.0000   0.6422
  -1.750   0.3855   0.01144   0.00519  -0.1281  0.7456  0.4263  -0.7886   0.0000   0.0000   0.0000   0.5852
  -1.500   0.4131   0.01125   0.00517  -0.1281  0.7422  0.4879  -0.7780   0.0000   0.0000   0.0000   0.5623
  -1.250   0.4414   0.01105   0.00513  -0.1282  0.7396  0.5515  -0.7945   0.0000   0.0000   0.0000   0.5418
  -1.000   0.4678   0.01095   0.00523  -0.1279  0.7358  0.6096  -0.8103   0.0000   0.0000   0.0000   0.5243
  -0.750   0.4948   0.01085   0.00528  -0.1277  0.7323  0.6658  -0.8288   0.0000   0.0000   0.0000   0.5083
  -0.500   0.5227   0.01075   0.00525  -0.1275  0.7297  0.7134  -0.8485   0.0000   0.0000   0.0000   0.4936
  -0.250   0.5488   0.01071   0.00533  -0.1270  0.7260  0.7534  -0.8669   0.0000   0.0000   0.0000   0.4807
   0.000   0.5746   0.01061   0.00533  -0.1264  0.7220  0.7937  -0.8854   0.0000   0.0000   0.0000   0.4688
   0.250   0.6006   0.01046   0.00525  -0.1256  0.7189  0.8371  -0.9045   0.0000   0.0000   0.0000   0.4575
   0.500   0.6229   0.01038   0.00531  -0.1241  0.7141  0.8863  -0.9234   0.0000   0.0000   0.0000   0.4472
   0.750   0.6537   0.01027   0.00523  -0.1243  0.7106  0.9459  -0.9484   0.0000   0.0000   0.0000   0.4377
   1.000   0.6999   0.01019   0.00508  -0.1281  0.7079  1.0001  -0.9822   0.0000   0.0000   0.0000   0.4302
   1.250   0.7260   0.01029   0.00516  -0.1280  0.7028  1.0001  -1.0040   0.0000   0.0000   0.0000   0.4231
   1.500   0.7551   0.01028   0.00508  -0.1283  0.6990  1.0001  -1.0282   0.0000   0.0000   0.0000   0.4163
   1.750   0.7824   0.01034   0.00510  -0.1283  0.6941  1.0001  -1.0533   0.0000   0.0000   0.0000   0.4101
   2.000   0.8107   0.01036   0.00507  -0.1284  0.6897  1.0001  -1.0814   0.0000   0.0000   0.0000   0.4042
   2.250   0.8393   0.01040   0.00507  -0.1286  0.6858  1.0001  -1.1097   0.0000   0.0000   0.0000   0.3987
   2.500   0.8664   0.01046   0.00512  -0.1285  0.6805  1.0001  -1.1373   0.0000   0.0000   0.0000   0.3935
   2.750   0.8959   0.01047   0.00505  -0.1288  0.6766  1.0001  -1.1676   0.0000   0.0000   0.0000   0.3886
   3.000   0.9220   0.01055   0.00516  -0.1286  0.6705  1.0001  -1.1966   0.0000   0.0000   0.0000   0.3839
   3.250   0.9514   0.01056   0.00510  -0.1289  0.6663  1.0001  -1.2318   0.0000   0.0000   0.0000   0.3796
   3.500   0.9771   0.01062   0.00519  -0.1286  0.6595  1.0001  -1.2641   0.0000   0.0000   0.0000   0.3754
   3.750   1.0050   0.01065   0.00519  -0.1286  0.6538  1.0001  -1.2994   0.0000   0.0000   0.0000   0.3714
   4.000   1.0319   0.01070   0.00524  -0.1284  0.6475  1.0001  -1.3341   0.0000   0.0000   0.0000   0.3676
   4.250   1.0588   0.01078   0.00532  -0.1283  0.6415  1.0001  -1.3689   0.0000   0.0000   0.0000   0.3640
   4.500   1.0863   0.01082   0.00535  -0.1283  0.6353  1.0001  -1.4115   0.0000   0.0000   0.0000   0.3606
   4.750   1.1119   0.01090   0.00546  -0.1279  0.6275  1.0001  -1.4542   0.0000   0.0000   0.0000   0.3572
   5.000   1.1383   0.01098   0.00554  -0.1277  0.6204  1.0001  -1.4982   0.0000   0.0000   0.0000   0.3540
   5.250   1.1650   0.01105   0.00559  -0.1275  0.6131  1.0001  -1.5430   0.0000   0.0000   0.0000   0.3509
   5.500   1.1898   0.01115   0.00571  -0.1270  0.6038  1.0001  -1.5861   0.0000   0.0000   0.0000   0.3479
   5.750   1.2146   0.01126   0.00583  -0.1265  0.5938  1.0001  -1.6298   0.0000   0.0000   0.0000   0.3449
   6.000   1.2391   0.01139   0.00596  -0.1260  0.5834  1.0001  -1.6879   0.0000   0.0000   0.0000   0.3421
   6.250   1.2632   0.01156   0.00612  -0.1254  0.5726  1.0001  -1.7513   0.0000   0.0000   0.0000   0.3393
   6.500   1.2869   0.01175   0.00631  -0.1247  0.5616  1.0001  -1.8166   0.0000   0.0000   0.0000   0.3366
   6.750   1.3100   0.01196   0.00653  -0.1239  0.5499  1.0001  -1.8881   0.0000   0.0000   0.0000   0.3339
   7.000   1.3321   0.01220   0.00675  -0.1230  0.5374  1.0001  -1.9667   0.0000   0.0000   0.0000   0.3313
   7.250   1.3525   0.01248   0.00703  -0.1218  0.5221  1.0001  -2.0464   0.0000   0.0000   0.0000   0.3286
   7.500   1.3707   0.01284   0.00731  -0.1202  0.5045  1.0001  -2.1243   0.0000   0.0000   0.0000   0.3258
   7.750   1.3871   0.01325   0.00769  -0.1183  0.4849  1.0001  -2.2001   0.0000   0.0000   0.0000   0.3231
   8.000   1.4022   0.01372   0.00811  -0.1163  0.4662  1.0001  -2.2980   0.0000   0.0000   0.0000   0.3203
   8.250   1.4140   0.01425   0.00857  -0.1137  0.4488  1.0001  -2.3947   0.0000   0.0000   0.0000   0.3173
   8.500   1.4248   0.01486   0.00913  -0.1110  0.4309  1.0001  -2.4901   0.0000   0.0000   0.0000   0.3145
   8.750   1.4347   0.01557   0.00980  -0.1084  0.4127  1.0001  -2.5845   0.0000   0.0000   0.0000   0.3117
   9.000   1.4433   0.01642   0.01058  -0.1057  0.3941  1.0001  -2.6760   0.0000   0.0000   0.0000   0.3090
   9.250   1.4512   0.01737   0.01146  -0.1032  0.3758  1.0001  -2.7668   0.0000   0.0000   0.0000   0.3064
   9.500   1.4594   0.01839   0.01243  -0.1008  0.3580  1.0001  -2.8592   0.0000   0.0000   0.0000   0.3039
   9.750   1.4673   0.01950   0.01349  -0.0986  0.3411  1.0001  -2.9557   0.0000   0.0000   0.0000   0.3016
  10.000   1.4751   0.02067   0.01462  -0.0965  0.3239  1.0001  -3.0540   0.0000   0.0000   0.0000   0.2993
  10.250   1.4823   0.02193   0.01584  -0.0944  0.3075  1.0001  -3.1515   0.0000   0.0000   0.0000   0.2972
  10.500   1.4881   0.02333   0.01718  -0.0923  0.2920  1.0001  -3.2455   0.0000   0.0000   0.0000   0.2950
  10.750   1.4952   0.02469   0.01851  -0.0904  0.2754  1.0001  -3.3441   0.0000   0.0000   0.0000   0.2930
  11.000   1.5009   0.02618   0.01996  -0.0885  0.2588  1.0001  -3.4393   0.0000   0.0000   0.0000   0.2910
  11.500   1.5091   0.02948   0.02315  -0.0846  0.2276  1.0001  -3.6217   0.0000   0.0000   0.0000   0.2871
  11.750   1.5135   0.03117   0.02480  -0.0828  0.2123  1.0001  -3.7147   0.0000   0.0000   0.0000   0.2853
  12.000   1.5168   0.03296   0.02654  -0.0810  0.1972  1.0001  -3.8047   0.0000   0.0000   0.0000   0.2835
  12.250   1.5201   0.03479   0.02834  -0.0793  0.1836  1.0001  -3.8949   0.0000   0.0000   0.0000   0.2817
  12.500   1.5227   0.03675   0.03026  -0.0777  0.1715  1.0001  -3.9828   0.0000   0.0000   0.0000   0.2800
  12.750   1.5273   0.03859   0.03210  -0.0762  0.1583  1.0001  -4.0777   0.0000   0.0000   0.0000   0.2784
  13.000   1.5301   0.04063   0.03410  -0.0748  0.1458  1.0001  -4.1670   0.0000   0.0000   0.0000   0.2769
  13.250   1.5319   0.04281   0.03625  -0.0733  0.1344  1.0001  -4.2529   0.0000   0.0000   0.0000   0.2754
  13.500   1.5333   0.04510   0.03852  -0.0720  0.1243  1.0001  -4.3370   0.0000   0.0000   0.0000   0.2739
  13.750   1.5355   0.04735   0.04078  -0.0708  0.1143  1.0001  -4.4246   0.0000   0.0000   0.0000   0.2725
  14.000   1.5366   0.04975   0.04317  -0.0696  0.1052  1.0001  -4.5138   0.0000   0.0000   0.0000   0.2712
  14.250   1.5377   0.05222   0.04563  -0.0685  0.0969  1.0001  -4.6026   0.0000   0.0000   0.0000   0.2699
  14.500   1.5384   0.05477   0.04820  -0.0675  0.0897  1.0001  -4.6901   0.0000   0.0000   0.0000   0.2687
  14.750   1.5382   0.05748   0.05092  -0.0666  0.0835  1.0001  -4.7737   0.0000   0.0000   0.0000   0.2675
  15.000   1.5373   0.06032   0.05378  -0.0657  0.0781  1.0001  -4.8539   0.0000   0.0000   0.0000   0.2664
  15.250   1.5354   0.06330   0.05678  -0.0649  0.0733  1.0001  -4.9303   0.0000   0.0000   0.0000   0.2654
  15.500   1.5353   0.06614   0.05968  -0.0643  0.0686  1.0001  -5.0130   0.0000   0.0000   0.0000   0.2644
  15.750   1.5346   0.06913   0.06271  -0.0638  0.0644  1.0001  -5.0921   0.0000   0.0000   0.0000   0.2635
  16.000   1.5322   0.07236   0.06599  -0.0633  0.0608  1.0001  -5.1641   0.0000   0.0000   0.0000   0.2627
  16.250   1.5292   0.07572   0.06938  -0.0630  0.0574  1.0001  -5.2382   0.0000   0.0000   0.0000   0.2620
  16.500   1.5277   0.07893   0.07269  -0.0628  0.0541  1.0001  -5.3179   0.0000   0.0000   0.0000   0.2613
  16.750   1.5220   0.08269   0.07648  -0.0626  0.0516  1.0001  -5.3826   0.0000   0.0000   0.0000   0.2608
  17.000   1.5204   0.08603   0.07990  -0.0626  0.0487  1.0001  -5.4669   0.0000   0.0000   0.0000   0.2602
  17.250   1.5144   0.08997   0.08388  -0.0627  0.0466  1.0001  -5.5298   0.0000   0.0000   0.0000   0.2598
  17.500   1.5120   0.09351   0.08752  -0.0629  0.0442  1.0001  -5.6077   0.0000   0.0000   0.0000   0.2594
  17.750   1.5044   0.09773   0.09176  -0.0633  0.0426  1.0001  -5.6609   0.0000   0.0000   0.0000   0.2593
  18.000   1.5024   0.10127   0.09542  -0.0636  0.0406  1.0001  -5.7370   0.0000   0.0000   0.0000   0.2590
  18.250   1.4978   0.10518   0.09939  -0.0642  0.0391  1.0001  -5.8022   0.0000   0.0000   0.0000   0.2588
  18.500   1.4923   0.10919   0.10344  -0.0648  0.0378  1.0001  -5.8602   0.0000   0.0000   0.0000   0.2588
  18.750   1.4899   0.11287   0.10723  -0.0655  0.0363  1.0001  -5.9380   0.0000   0.0000   0.0000   0.2587
  19.000   1.4868   0.11666   0.11109  -0.0663  0.0352  1.0001  -6.0150   0.0000   0.0000   0.0000   0.2587
  19.250   1.4828   0.12041   0.11482  -0.0671  0.0342  1.0001  -6.0869   0.0000   0.0000   0.0000   0.2587
  19.500   1.4816   0.12403   0.11858  -0.0681  0.0331  1.0001  -6.1674   0.0000   0.0000   0.0000   0.2588
  19.750   1.4804   0.12757   0.12221  -0.0691  0.0322  1.0001  -6.2496   0.0000   0.0000   0.0000   0.2588
  20.000   1.4795   0.13101   0.12570  -0.0701  0.0314  1.0001  -6.3352   0.0000   0.0000   0.0000   0.2589


