xflr5 v6.61

 Calculated polar for: QX0026 root

 1 1 Reynolds number fixed          Mach number fixed         

 xtrf =   1.000 (top)        1.000 (bottom)
 Mach =   0.000     Re =     0.760 e 6     Ncrit =   9.000

  alpha     CL        CD       CDp       Cm    Top Xtr Bot Xtr   Cpmin    Chinge    XCp    
 ------- -------- --------- --------- -------- ------- ------- -------- --------- ---------
 -10.000  -0.5240   0.01863   0.01311  -0.1213  0.7951  0.0222  -6.2755   0.0000   0.0000   0.0000  -0.0000
  -9.750  -0.4987   0.01805   0.01249  -0.1214  0.7920  0.0227  -6.0364   0.0000   0.0000   0.0000  -0.0120
  -9.500  -0.4730   0.01755   0.01191  -0.1214  0.7894  0.0232  -5.7996   0.0000   0.0000   0.0000  -0.0256
  -9.250  -0.4469   0.01704   0.01133  -0.1215  0.7866  0.0239  -5.5681   0.0000   0.0000   0.0000  -0.0410
  -9.000  -0.4204   0.01658   0.01077  -0.1216  0.7837  0.0246  -5.3388   0.0000   0.0000   0.0000  -0.0587
  -8.750  -0.3935   0.01621   0.01028  -0.1217  0.7810  0.0251  -5.1102   0.0000   0.0000   0.0000  -0.0792
  -8.500  -0.3687   0.01534   0.00933  -0.1217  0.7786  0.0259  -4.9083   0.0000   0.0000   0.0000  -0.1003
  -8.250  -0.3421   0.01484   0.00883  -0.1218  0.7756  0.0266  -4.6855   0.0000   0.0000   0.0000  -0.1270
  -8.000  -0.3149   0.01446   0.00840  -0.1219  0.7729  0.0273  -4.4638   0.0000   0.0000   0.0000  -0.1588
  -7.750  -0.2876   0.01408   0.00795  -0.1220  0.7705  0.0281  -4.2618   0.0000   0.0000   0.0000  -0.1969
  -7.500  -0.2598   0.01378   0.00757  -0.1221  0.7681  0.0290  -4.0628   0.0000   0.0000   0.0000  -0.2440
  -7.250  -0.2332   0.01320   0.00696  -0.1222  0.7652  0.0300  -3.8769   0.0000   0.0000   0.0000  -0.2995
  -7.000  -0.2057   0.01284   0.00658  -0.1223  0.7626  0.0311  -3.6813   0.0000   0.0000   0.0000  -0.3725
  -6.750  -0.1778   0.01255   0.00624  -0.1224  0.7603  0.0322  -3.4900   0.0000   0.0000   0.0000  -0.4695
  -6.500  -0.1496   0.01230   0.00592  -0.1226  0.7579  0.0334  -3.3171   0.0000   0.0000   0.0000  -0.6043
  -6.250  -0.1222   0.01183   0.00545  -0.1227  0.7551  0.0348  -3.1536   0.0000   0.0000   0.0000  -0.7943
  -6.000  -0.0940   0.01157   0.00517  -0.1229  0.7524  0.0364  -2.9824   0.0000   0.0000   0.0000  -1.1068
  -5.750  -0.0654   0.01139   0.00492  -0.1231  0.7500  0.0381  -2.8142   0.0000   0.0000   0.0000  -1.6983
  -5.500  -0.0376   0.01104   0.00457  -0.1232  0.7474  0.0403  -2.6579   0.0000   0.0000   0.0000  -3.1424
  -5.250  -0.0090   0.01082   0.00434  -0.1234  0.7445  0.0425  -2.5092   0.0000   0.0000   0.0000  -13.8538
  -5.000   0.0193   0.01054   0.00404  -0.1236  0.7419  0.0450  -2.3652   0.0000   0.0000   0.0000   6.8514
  -4.750   0.0481   0.01037   0.00384  -0.1238  0.7396  0.0479  -2.2198   0.0000   0.0000   0.0000   2.9006
  -4.500   0.0766   0.01014   0.00362  -0.1240  0.7371  0.0516  -2.0780   0.0000   0.0000   0.0000   1.9136
  -4.250   0.1052   0.00994   0.00343  -0.1243  0.7342  0.0562  -1.9382   0.0000   0.0000   0.0000   1.4606
  -4.000   0.1340   0.00974   0.00324  -0.1245  0.7316  0.0621  -1.8009   0.0000   0.0000   0.0000   1.2009
  -3.750   0.1628   0.00956   0.00307  -0.1247  0.7294  0.0708  -1.6736   0.0000   0.0000   0.0000   1.0327
  -3.500   0.1915   0.00937   0.00293  -0.1250  0.7267  0.0845  -1.5515   0.0000   0.0000   0.0000   0.9157
  -3.250   0.2201   0.00917   0.00281  -0.1252  0.7238  0.1032  -1.4309   0.0000   0.0000   0.0000   0.8292
  -3.000   0.2489   0.00899   0.00270  -0.1255  0.7211  0.1249  -1.3117   0.0000   0.0000   0.0000   0.7624
  -2.750   0.2778   0.00885   0.00260  -0.1258  0.7187  0.1475  -1.1946   0.0000   0.0000   0.0000   0.7093
  -2.500   0.3065   0.00868   0.00254  -0.1261  0.7155  0.1728  -1.0807   0.0000   0.0000   0.0000   0.6665
  -2.250   0.3352   0.00851   0.00246  -0.1263  0.7123  0.2027  -0.9767   0.0000   0.0000   0.0000   0.6310
  -2.000   0.3640   0.00835   0.00238  -0.1266  0.7094  0.2386  -0.8758   0.0000   0.0000   0.0000   0.6010
  -1.750   0.3926   0.00817   0.00234  -0.1269  0.7066  0.2851  -0.7782   0.0000   0.0000   0.0000   0.5756
  -1.500   0.4212   0.00799   0.00232  -0.1272  0.7033  0.3342  -0.7919   0.0000   0.0000   0.0000   0.5536
  -1.250   0.4500   0.00784   0.00229  -0.1275  0.7003  0.3804  -0.8085   0.0000   0.0000   0.0000   0.5342
  -0.750   0.5070   0.00753   0.00227  -0.1279  0.6932  0.4872  -0.8427   0.0000   0.0000   0.0000   0.5022
  -0.500   0.5354   0.00739   0.00226  -0.1281  0.6895  0.5411  -0.8627   0.0000   0.0000   0.0000   0.4886
  -0.250   0.5638   0.00729   0.00228  -0.1283  0.6861  0.5925  -0.8826   0.0000   0.0000   0.0000   0.4764
   0.000   0.5920   0.00718   0.00232  -0.1284  0.6821  0.6418  -0.9024   0.0000   0.0000   0.0000   0.4653
   0.250   0.6203   0.00711   0.00234  -0.1284  0.6785  0.6840  -0.9224   0.0000   0.0000   0.0000   0.4551
   0.500   0.6485   0.00707   0.00237  -0.1285  0.6746  0.7190  -0.9445   0.0000   0.0000   0.0000   0.4458
   0.750   0.6765   0.00702   0.00240  -0.1285  0.6703  0.7514  -0.9678   0.0000   0.0000   0.0000   0.4372
   1.000   0.7043   0.00698   0.00242  -0.1284  0.6666  0.7840  -0.9911   0.0000   0.0000   0.0000   0.4293
   1.250   0.7311   0.00690   0.00247  -0.1281  0.6619  0.8212  -1.0140   0.0000   0.0000   0.0000   0.4219
   1.500   0.7565   0.00681   0.00250  -0.1274  0.6574  0.8702  -1.0361   0.0000   0.0000   0.0000   0.4147
   1.750   0.7802   0.00671   0.00254  -0.1262  0.6530  0.9369  -1.0589   0.0000   0.0000   0.0000   0.4077
   2.000   0.8203   0.00668   0.00252  -0.1289  0.6481  1.0001  -1.0944   0.0000   0.0000   0.0000   0.4027
   2.250   0.8485   0.00675   0.00255  -0.1290  0.6433  1.0001  -1.1226   0.0000   0.0000   0.0000   0.3974
   2.500   0.8765   0.00680   0.00258  -0.1291  0.6373  1.0001  -1.1514   0.0000   0.0000   0.0000   0.3923
   2.750   0.9045   0.00687   0.00262  -0.1292  0.6317  1.0001  -1.1805   0.0000   0.0000   0.0000   0.3875
   3.000   0.9324   0.00694   0.00267  -0.1294  0.6259  1.0001  -1.2108   0.0000   0.0000   0.0000   0.3830
   3.250   0.9604   0.00701   0.00274  -0.1295  0.6203  1.0001  -1.2447   0.0000   0.0000   0.0000   0.3788
   3.500   0.9881   0.00710   0.00279  -0.1295  0.6143  1.0001  -1.2792   0.0000   0.0000   0.0000   0.3748
   3.750   1.0158   0.00718   0.00287  -0.1296  0.6073  1.0001  -1.3144   0.0000   0.0000   0.0000   0.3709
   4.000   1.0431   0.00728   0.00295  -0.1296  0.6003  1.0001  -1.3495   0.0000   0.0000   0.0000   0.3672
   4.250   1.0701   0.00739   0.00303  -0.1295  0.5925  1.0001  -1.3845   0.0000   0.0000   0.0000   0.3637
   4.500   1.0970   0.00751   0.00314  -0.1294  0.5837  1.0001  -1.4273   0.0000   0.0000   0.0000   0.3604
   4.750   1.1235   0.00765   0.00326  -0.1293  0.5745  1.0001  -1.4713   0.0000   0.0000   0.0000   0.3571
   5.000   1.1498   0.00780   0.00338  -0.1291  0.5647  1.0001  -1.5154   0.0000   0.0000   0.0000   0.3540
   5.250   1.1758   0.00796   0.00352  -0.1289  0.5544  1.0001  -1.5594   0.0000   0.0000   0.0000   0.3510
   5.500   1.2015   0.00813   0.00367  -0.1286  0.5433  1.0001  -1.6035   0.0000   0.0000   0.0000   0.3481
   5.750   1.2267   0.00833   0.00384  -0.1283  0.5314  1.0001  -1.6476   0.0000   0.0000   0.0000   0.3452
   6.000   1.2512   0.00855   0.00403  -0.1278  0.5185  1.0001  -1.7091   0.0000   0.0000   0.0000   0.3425
   6.500   1.2974   0.00912   0.00448  -0.1264  0.4869  1.0001  -1.8367   0.0000   0.0000   0.0000   0.3370
   6.750   1.3178   0.00951   0.00479  -0.1253  0.4644  1.0001  -1.9078   0.0000   0.0000   0.0000   0.3343
   7.000   1.3371   0.00995   0.00512  -0.1239  0.4424  1.0001  -1.9839   0.0000   0.0000   0.0000   0.3315
   7.250   1.3565   0.01037   0.00547  -0.1227  0.4238  1.0001  -2.0628   0.0000   0.0000   0.0000   0.3289
   7.500   1.3748   0.01083   0.00585  -0.1212  0.4055  1.0001  -2.1407   0.0000   0.0000   0.0000   0.3262
   7.750   1.3908   0.01132   0.00627  -0.1193  0.3860  1.0001  -2.2181   0.0000   0.0000   0.0000   0.3235
   8.000   1.4039   0.01188   0.00674  -0.1169  0.3666  1.0001  -2.3171   0.0000   0.0000   0.0000   0.3206
   8.250   1.4172   0.01248   0.00727  -0.1148  0.3481  1.0001  -2.4180   0.0000   0.0000   0.0000   0.3179
   8.500   1.4306   0.01313   0.00785  -0.1127  0.3305  1.0001  -2.5200   0.0000   0.0000   0.0000   0.3153
   9.000   1.4549   0.01467   0.00925  -0.1086  0.2951  1.0001  -2.7218   0.0000   0.0000   0.0000   0.3103
   9.250   1.4667   0.01554   0.01005  -0.1067  0.2782  1.0001  -2.8259   0.0000   0.0000   0.0000   0.3080
   9.500   1.4779   0.01649   0.01093  -0.1048  0.2601  1.0001  -2.9332   0.0000   0.0000   0.0000   0.3057
   9.750   1.4874   0.01757   0.01193  -0.1028  0.2425  1.0001  -3.0372   0.0000   0.0000   0.0000   0.3035
  10.000   1.4974   0.01867   0.01297  -0.1009  0.2268  1.0001  -3.1433   0.0000   0.0000   0.0000   0.3013
  10.250   1.5080   0.01977   0.01401  -0.0992  0.2115  1.0001  -3.2523   0.0000   0.0000   0.0000   0.2993
  10.500   1.5172   0.02097   0.01514  -0.0975  0.1956  1.0001  -3.3585   0.0000   0.0000   0.0000   0.2972
  10.750   1.5254   0.02228   0.01638  -0.0956  0.1818  1.0001  -3.4624   0.0000   0.0000   0.0000   0.2952
  11.000   1.5344   0.02353   0.01760  -0.0940  0.1701  1.0001  -3.5699   0.0000   0.0000   0.0000   0.2933
  11.250   1.5436   0.02480   0.01883  -0.0924  0.1574  1.0001  -3.6788   0.0000   0.0000   0.0000   0.2914
  11.500   1.5514   0.02618   0.02017  -0.0907  0.1445  1.0001  -3.7845   0.0000   0.0000   0.0000   0.2896
  11.750   1.5578   0.02767   0.02161  -0.0889  0.1333  1.0001  -3.8864   0.0000   0.0000   0.0000   0.2877
  12.000   1.5648   0.02915   0.02306  -0.0873  0.1235  1.0001  -3.9907   0.0000   0.0000   0.0000   0.2859
  12.250   1.5714   0.03066   0.02455  -0.0857  0.1136  1.0001  -4.0950   0.0000   0.0000   0.0000   0.2841
  12.500   1.5771   0.03228   0.02613  -0.0840  0.1034  1.0001  -4.1967   0.0000   0.0000   0.0000   0.2824
  12.750   1.5824   0.03396   0.02778  -0.0824  0.0934  1.0001  -4.2977   0.0000   0.0000   0.0000   0.2807
  13.250   1.5921   0.03755   0.03133  -0.0794  0.0783  1.0001  -4.4977   0.0000   0.0000   0.0000   0.2775
  13.500   1.5974   0.03936   0.03314  -0.0781  0.0724  1.0001  -4.6032   0.0000   0.0000   0.0000   0.2760
  13.750   1.6025   0.04121   0.03501  -0.0768  0.0672  1.0001  -4.7124   0.0000   0.0000   0.0000   0.2745
  14.000   1.6077   0.04312   0.03692  -0.0756  0.0624  1.0001  -4.8224   0.0000   0.0000   0.0000   0.2730
  14.250   1.6133   0.04503   0.03886  -0.0745  0.0581  1.0001  -4.9344   0.0000   0.0000   0.0000   0.2716
  14.500   1.6183   0.04702   0.04087  -0.0735  0.0543  1.0001  -5.0450   0.0000   0.0000   0.0000   0.2703
  14.750   1.6224   0.04912   0.04300  -0.0725  0.0507  1.0001  -5.1523   0.0000   0.0000   0.0000   0.2690
  15.000   1.6255   0.05136   0.04526  -0.0714  0.0473  1.0001  -5.2558   0.0000   0.0000   0.0000   0.2677
  15.250   1.6301   0.05349   0.04743  -0.0706  0.0441  1.0001  -5.3655   0.0000   0.0000   0.0000   0.2665
  15.500   1.6331   0.05583   0.04981  -0.0697  0.0412  1.0001  -5.4687   0.0000   0.0000   0.0000   0.2653
  15.750   1.6342   0.05840   0.05241  -0.0689  0.0384  1.0001  -5.5677   0.0000   0.0000   0.0000   0.2642
  16.000   1.6370   0.06084   0.05490  -0.0682  0.0358  1.0001  -5.6832   0.0000   0.0000   0.0000   0.2632
  16.250   1.6367   0.06363   0.05772  -0.0675  0.0335  1.0001  -5.7868   0.0000   0.0000   0.0000   0.2621
  16.500   1.6372   0.06639   0.06053  -0.0669  0.0314  1.0001  -5.8940   0.0000   0.0000   0.0000   0.2612
  16.750   1.6360   0.06940   0.06360  -0.0664  0.0296  1.0001  -5.9925   0.0000   0.0000   0.0000   0.2603
  17.000   1.6356   0.07236   0.06662  -0.0660  0.0279  1.0001  -6.0956   0.0000   0.0000   0.0000   0.2594
  17.250   1.6309   0.07590   0.07021  -0.0656  0.0266  1.0001  -6.1761   0.0000   0.0000   0.0000   0.2587
  17.500   1.6310   0.07889   0.07329  -0.0654  0.0255  1.0001  -6.2818   0.0000   0.0000   0.0000   0.2580
  17.750   1.6286   0.08220   0.07668  -0.0653  0.0246  1.0001  -6.3808   0.0000   0.0000   0.0000   0.2573
  18.000   1.6236   0.08591   0.08045  -0.0653  0.0238  1.0001  -6.4654   0.0000   0.0000   0.0000   0.2568
  18.250   1.6159   0.09006   0.08468  -0.0654  0.0231  1.0001  -6.5325   0.0000   0.0000   0.0000   0.2564
  18.500   1.6140   0.09349   0.08820  -0.0656  0.0225  1.0001  -6.6321   0.0000   0.0000   0.0000   0.2560
  18.750   1.6106   0.09713   0.09194  -0.0659  0.0219  1.0001  -6.7235   0.0000   0.0000   0.0000   0.2556
  19.000   1.6061   0.10097   0.09586  -0.0664  0.0213  1.0001  -6.8081   0.0000   0.0000   0.0000   0.2554
  19.250   1.5998   0.10508   0.10004  -0.0670  0.0208  1.0001  -6.8809   0.0000   0.0000   0.0000   0.2553
  19.500   1.5911   0.10958   0.10463  -0.0678  0.0204  1.0001  -6.9374   0.0000   0.0000   0.0000   0.2553
  19.750   1.5794   0.11461   0.10975  -0.0689  0.0200  1.0001  -6.9713   0.0000   0.0000   0.0000   0.2557
  20.000   1.5746   0.11869   0.11392  -0.0699  0.0197  1.0001  -7.0466   0.0000   0.0000   0.0000   0.2558


