xflr5 v6.61

 Calculated polar for: QX0026 root

 1 1 Reynolds number fixed          Mach number fixed         

 xtrf =   1.000 (top)        1.000 (bottom)
 Mach =   0.000     Re =     0.940 e 6     Ncrit =   9.000

  alpha     CL        CD       CDp       Cm    Top Xtr Bot Xtr   Cpmin    Chinge    XCp    
 ------- -------- --------- --------- -------- ------- ------- -------- --------- ---------
 -10.000  -0.5314   0.01695   0.01155  -0.1206  0.7844  0.0209  -6.3824   0.0000   0.0000   0.0000   0.0048
  -9.750  -0.5053   0.01647   0.01098  -0.1207  0.7816  0.0213  -6.1410   0.0000   0.0000   0.0000  -0.0072
  -9.500  -0.4790   0.01603   0.01042  -0.1207  0.7791  0.0216  -5.9022   0.0000   0.0000   0.0000  -0.0206
  -9.250  -0.4550   0.01507   0.00941  -0.1207  0.7763  0.0223  -5.6907   0.0000   0.0000   0.0000  -0.0341
  -9.000  -0.4281   0.01467   0.00899  -0.1208  0.7735  0.0229  -5.4475   0.0000   0.0000   0.0000  -0.0514
  -8.750  -0.4008   0.01436   0.00862  -0.1209  0.7709  0.0236  -5.2060   0.0000   0.0000   0.0000  -0.0713
  -8.500  -0.3735   0.01403   0.00823  -0.1210  0.7685  0.0243  -4.9723   0.0000   0.0000   0.0000  -0.0942
  -8.250  -0.3459   0.01368   0.00782  -0.1212  0.7658  0.0249  -4.7447   0.0000   0.0000   0.0000  -0.1210
  -8.000  -0.3184   0.01332   0.00739  -0.1213  0.7631  0.0254  -4.5229   0.0000   0.0000   0.0000  -0.1525
  -7.750  -0.2922   0.01269   0.00673  -0.1213  0.7607  0.0263  -4.3302   0.0000   0.0000   0.0000  -0.1877
  -7.500  -0.2644   0.01241   0.00641  -0.1215  0.7583  0.0271  -4.1225   0.0000   0.0000   0.0000  -0.2332
  -7.250  -0.2363   0.01215   0.00612  -0.1217  0.7556  0.0281  -3.9178   0.0000   0.0000   0.0000  -0.2903
  -7.000  -0.2080   0.01191   0.00584  -0.1218  0.7531  0.0290  -3.7182   0.0000   0.0000   0.0000  -0.3634
  -6.750  -0.1806   0.01147   0.00535  -0.1220  0.7507  0.0301  -3.5353   0.0000   0.0000   0.0000  -0.4556
  -6.500  -0.1524   0.01121   0.00506  -0.1221  0.7484  0.0313  -3.3564   0.0000   0.0000   0.0000  -0.5852
  -6.250  -0.1240   0.01097   0.00481  -0.1223  0.7456  0.0326  -3.1805   0.0000   0.0000   0.0000  -0.7764
  -6.000  -0.0955   0.01075   0.00454  -0.1225  0.7429  0.0339  -3.0092   0.0000   0.0000   0.0000  -1.0821
  -5.750  -0.0674   0.01043   0.00421  -0.1227  0.7404  0.0357  -2.8412   0.0000   0.0000   0.0000  -1.6369
  -5.500  -0.0387   0.01028   0.00402  -0.1229  0.7380  0.0377  -2.6793   0.0000   0.0000   0.0000  -3.0375
  -5.250  -0.0102   0.01000   0.00375  -0.1231  0.7352  0.0398  -2.5304   0.0000   0.0000   0.0000  -12.2035
  -5.000   0.0186   0.00982   0.00355  -0.1233  0.7326  0.0421  -2.3801   0.0000   0.0000   0.0000   7.0971
  -4.750   0.0472   0.00961   0.00333  -0.1235  0.7302  0.0449  -2.2345   0.0000   0.0000   0.0000   2.9401
  -4.500   0.0761   0.00947   0.00316  -0.1238  0.7279  0.0480  -2.0892   0.0000   0.0000   0.0000   1.9197
  -4.250   0.1049   0.00927   0.00299  -0.1240  0.7251  0.0523  -1.9473   0.0000   0.0000   0.0000   1.4619
  -4.000   0.1338   0.00909   0.00283  -0.1243  0.7225  0.0577  -1.8080   0.0000   0.0000   0.0000   1.2006
  -3.750   0.1627   0.00893   0.00267  -0.1245  0.7201  0.0653  -1.6791   0.0000   0.0000   0.0000   1.0319
  -3.500   0.1915   0.00876   0.00254  -0.1248  0.7176  0.0771  -1.5554   0.0000   0.0000   0.0000   0.9144
  -3.250   0.2203   0.00858   0.00243  -0.1251  0.7148  0.0941  -1.4336   0.0000   0.0000   0.0000   0.8278
  -3.000   0.2492   0.00841   0.00233  -0.1253  0.7119  0.1137  -1.3138   0.0000   0.0000   0.0000   0.7611
  -2.750   0.2781   0.00827   0.00224  -0.1256  0.7092  0.1346  -1.1963   0.0000   0.0000   0.0000   0.7082
  -2.500   0.3070   0.00813   0.00217  -0.1259  0.7063  0.1567  -1.0815   0.0000   0.0000   0.0000   0.6653
  -2.250   0.3358   0.00797   0.00210  -0.1262  0.7030  0.1830  -0.9765   0.0000   0.0000   0.0000   0.6298
  -2.000   0.3647   0.00782   0.00203  -0.1265  0.7001  0.2135  -0.8753   0.0000   0.0000   0.0000   0.5999
  -1.750   0.3935   0.00768   0.00198  -0.1268  0.6975  0.2513  -0.7771   0.0000   0.0000   0.0000   0.5744
  -1.500   0.4223   0.00749   0.00196  -0.1271  0.6942  0.2984  -0.7936   0.0000   0.0000   0.0000   0.5525
  -1.250   0.4510   0.00735   0.00193  -0.1274  0.6907  0.3444  -0.8103   0.0000   0.0000   0.0000   0.5333
  -1.000   0.4798   0.00723   0.00190  -0.1277  0.6875  0.3894  -0.8270   0.0000   0.0000   0.0000   0.5164
  -0.750   0.5084   0.00706   0.00190  -0.1279  0.6835  0.4411  -0.8444   0.0000   0.0000   0.0000   0.5014
  -0.500   0.5370   0.00692   0.00190  -0.1282  0.6797  0.4935  -0.8644   0.0000   0.0000   0.0000   0.4879
  -0.250   0.5655   0.00683   0.00191  -0.1284  0.6764  0.5453  -0.8844   0.0000   0.0000   0.0000   0.4758
   0.000   0.5941   0.00670   0.00194  -0.1286  0.6724  0.5946  -0.9044   0.0000   0.0000   0.0000   0.4648
   0.250   0.6225   0.00662   0.00196  -0.1287  0.6685  0.6402  -0.9245   0.0000   0.0000   0.0000   0.4548
   0.500   0.6509   0.00658   0.00200  -0.1288  0.6647  0.6809  -0.9467   0.0000   0.0000   0.0000   0.4456
   0.750   0.6794   0.00652   0.00204  -0.1289  0.6603  0.7154  -0.9703   0.0000   0.0000   0.0000   0.4371
   1.000   0.7075   0.00650   0.00206  -0.1290  0.6562  0.7463  -0.9938   0.0000   0.0000   0.0000   0.4292
   1.250   0.7355   0.00645   0.00210  -0.1290  0.6514  0.7763  -1.0174   0.0000   0.0000   0.0000   0.4220
   1.500   0.7629   0.00640   0.00214  -0.1289  0.6469  0.8122  -1.0406   0.0000   0.0000   0.0000   0.4152
   1.750   0.7890   0.00632   0.00220  -0.1284  0.6424  0.8606  -1.0651   0.0000   0.0000   0.0000   0.4086
   2.000   0.8122   0.00622   0.00225  -0.1272  0.6373  0.9258  -1.0902   0.0000   0.0000   0.0000   0.4021
   2.250   0.8502   0.00618   0.00224  -0.1293  0.6317  1.0001  -1.1247   0.0000   0.0000   0.0000   0.3973
   2.500   0.8784   0.00625   0.00228  -0.1295  0.6258  1.0001  -1.1538   0.0000   0.0000   0.0000   0.3923
   2.750   0.9066   0.00631   0.00233  -0.1296  0.6203  1.0001  -1.1830   0.0000   0.0000   0.0000   0.3876
   3.000   0.9346   0.00639   0.00238  -0.1297  0.6144  1.0001  -1.2133   0.0000   0.0000   0.0000   0.3831
   3.250   0.9628   0.00646   0.00244  -0.1299  0.6083  1.0001  -1.2474   0.0000   0.0000   0.0000   0.3789
   3.500   0.9903   0.00657   0.00250  -0.1299  0.6019  1.0001  -1.2819   0.0000   0.0000   0.0000   0.3748
   3.750   1.0181   0.00666   0.00258  -0.1300  0.5943  1.0001  -1.3172   0.0000   0.0000   0.0000   0.3710
   4.000   1.0455   0.00677   0.00266  -0.1300  0.5864  1.0001  -1.3523   0.0000   0.0000   0.0000   0.3674
   4.250   1.0725   0.00690   0.00276  -0.1300  0.5781  1.0001  -1.3874   0.0000   0.0000   0.0000   0.3639
   4.500   1.0992   0.00704   0.00287  -0.1299  0.5689  1.0001  -1.4302   0.0000   0.0000   0.0000   0.3605
   4.750   1.1257   0.00719   0.00299  -0.1297  0.5589  1.0001  -1.4742   0.0000   0.0000   0.0000   0.3573
   5.250   1.1782   0.00751   0.00326  -0.1294  0.5372  1.0001  -1.5626   0.0000   0.0000   0.0000   0.3512
   5.500   1.2039   0.00770   0.00341  -0.1291  0.5249  1.0001  -1.6067   0.0000   0.0000   0.0000   0.3483
   5.750   1.2291   0.00791   0.00358  -0.1288  0.5118  1.0001  -1.6508   0.0000   0.0000   0.0000   0.3454
   6.000   1.2535   0.00815   0.00378  -0.1283  0.4977  1.0001  -1.7128   0.0000   0.0000   0.0000   0.3427
   6.250   1.2767   0.00845   0.00402  -0.1277  0.4806  1.0001  -1.7752   0.0000   0.0000   0.0000   0.3399
   6.500   1.2980   0.00884   0.00430  -0.1267  0.4573  1.0001  -1.8383   0.0000   0.0000   0.0000   0.3372
   6.750   1.3183   0.00926   0.00462  -0.1255  0.4342  1.0001  -1.9096   0.0000   0.0000   0.0000   0.3344
   7.000   1.3388   0.00967   0.00494  -0.1244  0.4152  1.0001  -1.9879   0.0000   0.0000   0.0000   0.3318
   7.250   1.3586   0.01009   0.00528  -0.1232  0.3965  1.0001  -2.0676   0.0000   0.0000   0.0000   0.3292
   7.500   1.3773   0.01054   0.00565  -0.1218  0.3772  1.0001  -2.1463   0.0000   0.0000   0.0000   0.3265
   7.750   1.3934   0.01105   0.00607  -0.1200  0.3576  1.0001  -2.2266   0.0000   0.0000   0.0000   0.3238
   8.000   1.4075   0.01157   0.00651  -0.1178  0.3388  1.0001  -2.3281   0.0000   0.0000   0.0000   0.3210
   8.250   1.4217   0.01214   0.00701  -0.1157  0.3207  1.0001  -2.4313   0.0000   0.0000   0.0000   0.3183
   8.500   1.4349   0.01280   0.00758  -0.1136  0.3028  1.0001  -2.5332   0.0000   0.0000   0.0000   0.3157
   8.750   1.4481   0.01349   0.00821  -0.1116  0.2858  1.0001  -2.6364   0.0000   0.0000   0.0000   0.3132
   9.000   1.4608   0.01426   0.00890  -0.1097  0.2677  1.0001  -2.7394   0.0000   0.0000   0.0000   0.3108
   9.250   1.4724   0.01512   0.00968  -0.1077  0.2497  1.0001  -2.8462   0.0000   0.0000   0.0000   0.3084
   9.500   1.4829   0.01610   0.01058  -0.1057  0.2335  1.0001  -2.9518   0.0000   0.0000   0.0000   0.3061
   9.750   1.4948   0.01704   0.01146  -0.1040  0.2180  1.0001  -3.0627   0.0000   0.0000   0.0000   0.3039
  10.000   1.5063   0.01803   0.01239  -0.1023  0.2024  1.0001  -3.1738   0.0000   0.0000   0.0000   0.3018
  10.250   1.5161   0.01917   0.01345  -0.1005  0.1876  1.0001  -3.2811   0.0000   0.0000   0.0000   0.2997
  10.500   1.5261   0.02030   0.01454  -0.0987  0.1749  1.0001  -3.3902   0.0000   0.0000   0.0000   0.2977
  10.750   1.5363   0.02146   0.01565  -0.0971  0.1629  1.0001  -3.5008   0.0000   0.0000   0.0000   0.2958
  11.000   1.5460   0.02266   0.01681  -0.0955  0.1493  1.0001  -3.6111   0.0000   0.0000   0.0000   0.2938
  11.250   1.5544   0.02396   0.01805  -0.0937  0.1373  1.0001  -3.7184   0.0000   0.0000   0.0000   0.2919
  11.500   1.5626   0.02531   0.01936  -0.0921  0.1271  1.0001  -3.8256   0.0000   0.0000   0.0000   0.2900
  11.750   1.5704   0.02669   0.02072  -0.0904  0.1175  1.0001  -3.9328   0.0000   0.0000   0.0000   0.2882
  12.000   1.5782   0.02808   0.02208  -0.0888  0.1071  1.0001  -4.0409   0.0000   0.0000   0.0000   0.2864
  12.250   1.5843   0.02962   0.02357  -0.0871  0.0967  1.0001  -4.1441   0.0000   0.0000   0.0000   0.2846
  12.500   1.5902   0.03121   0.02512  -0.0854  0.0874  1.0001  -4.2473   0.0000   0.0000   0.0000   0.2829
  12.750   1.5959   0.03283   0.02673  -0.0838  0.0800  1.0001  -4.3503   0.0000   0.0000   0.0000   0.2812
  13.000   1.6021   0.03446   0.02835  -0.0823  0.0738  1.0001  -4.4560   0.0000   0.0000   0.0000   0.2795
  13.250   1.6088   0.03610   0.02999  -0.0810  0.0683  1.0001  -4.5636   0.0000   0.0000   0.0000   0.2779
  13.500   1.6155   0.03777   0.03167  -0.0797  0.0633  1.0001  -4.6777   0.0000   0.0000   0.0000   0.2764
  13.750   1.6220   0.03949   0.03339  -0.0785  0.0589  1.0001  -4.7933   0.0000   0.0000   0.0000   0.2749
  14.000   1.6282   0.04126   0.03519  -0.0773  0.0550  1.0001  -4.9084   0.0000   0.0000   0.0000   0.2735
  14.250   1.6337   0.04313   0.03707  -0.0761  0.0513  1.0001  -5.0217   0.0000   0.0000   0.0000   0.2720
  14.500   1.6392   0.04503   0.03899  -0.0750  0.0477  1.0001  -5.1359   0.0000   0.0000   0.0000   0.2707
  14.750   1.6450   0.04696   0.04095  -0.0740  0.0444  1.0001  -5.2514   0.0000   0.0000   0.0000   0.2694
  15.000   1.6495   0.04902   0.04304  -0.0730  0.0414  1.0001  -5.3621   0.0000   0.0000   0.0000   0.2681
  15.250   1.6527   0.05123   0.04527  -0.0720  0.0385  1.0001  -5.4682   0.0000   0.0000   0.0000   0.2668
  15.500   1.6570   0.05338   0.04746  -0.0711  0.0358  1.0001  -5.5786   0.0000   0.0000   0.0000   0.2656
  15.750   1.6595   0.05577   0.04988  -0.0702  0.0334  1.0001  -5.6904   0.0000   0.0000   0.0000   0.2644
  16.000   1.6614   0.05825   0.05239  -0.0694  0.0310  1.0001  -5.8063   0.0000   0.0000   0.0000   0.2633
  16.250   1.6635   0.06075   0.05494  -0.0687  0.0289  1.0001  -5.9231   0.0000   0.0000   0.0000   0.2622
  16.500   1.6633   0.06352   0.05775  -0.0680  0.0270  1.0001  -6.0294   0.0000   0.0000   0.0000   0.2612
  16.750   1.6644   0.06620   0.06049  -0.0674  0.0255  1.0001  -6.1415   0.0000   0.0000   0.0000   0.2602
  17.000   1.6642   0.06906   0.06341  -0.0669  0.0242  1.0001  -6.2482   0.0000   0.0000   0.0000   0.2593
  17.250   1.6609   0.07236   0.06676  -0.0665  0.0231  1.0001  -6.3395   0.0000   0.0000   0.0000   0.2585
  17.500   1.6621   0.07516   0.06964  -0.0662  0.0223  1.0001  -6.4605   0.0000   0.0000   0.0000   0.2577
  17.750   1.6611   0.07826   0.07281  -0.0659  0.0215  1.0001  -6.5705   0.0000   0.0000   0.0000   0.2569
  18.000   1.6583   0.08160   0.07621  -0.0658  0.0208  1.0001  -6.6705   0.0000   0.0000   0.0000   0.2563
  18.250   1.6523   0.08539   0.08007  -0.0657  0.0201  1.0001  -6.7522   0.0000   0.0000   0.0000   0.2557
  18.500   1.6489   0.08893   0.08370  -0.0658  0.0196  1.0001  -6.8471   0.0000   0.0000   0.0000   0.2552
  18.750   1.6469   0.09231   0.08717  -0.0659  0.0192  1.0001  -6.9506   0.0000   0.0000   0.0000   0.2547
  19.000   1.6438   0.09589   0.09083  -0.0662  0.0187  1.0001  -7.0474   0.0000   0.0000   0.0000   0.2543
  19.250   1.6393   0.09969   0.09471  -0.0666  0.0183  1.0001  -7.1355   0.0000   0.0000   0.0000   0.2540
  19.500   1.6335   0.10368   0.09878  -0.0672  0.0180  1.0001  -7.2154   0.0000   0.0000   0.0000   0.2538
  19.750   1.6260   0.10794   0.10312  -0.0679  0.0176  1.0001  -7.2830   0.0000   0.0000   0.0000   0.2538
  20.000   1.6162   0.11263   0.10789  -0.0688  0.0172  1.0001  -7.3329   0.0000   0.0000   0.0000   0.2540


