xflr5 v6.61

 Calculated polar for: QX0026 root

 1 1 Reynolds number fixed          Mach number fixed         

 xtrf =   1.000 (top)        1.000 (bottom)
 Mach =   0.000     Re =     0.280 e 6     Ncrit =   9.000

  alpha     CL        CD       CDp       Cm    Top Xtr Bot Xtr   Cpmin    Chinge    XCp    
 ------- -------- --------- --------- -------- ------- ------- -------- --------- ---------
  -9.750  -0.3436   0.04947   0.04567  -0.1218  0.8631  0.0385  -4.0257   0.0000   0.0000   0.0000  -0.1285
  -9.500  -0.3438   0.04568   0.04172  -0.1244  0.8578  0.0388  -4.0342   0.0000   0.0000   0.0000  -0.1351
  -9.250  -0.3414   0.04207   0.03787  -0.1262  0.8539  0.0391  -4.0330   0.0000   0.0000   0.0000  -0.1424
  -9.000  -0.3297   0.03971   0.03537  -0.1272  0.8492  0.0397  -3.9511   0.0000   0.0000   0.0000  -0.1585
  -8.750  -0.3461   0.03058   0.02488  -0.1287  0.8450  0.0387  -4.3196   0.0000   0.0000   0.0000  -0.1438
  -8.500  -0.3238   0.02934   0.02364  -0.1289  0.8409  0.0394  -4.1471   0.0000   0.0000   0.0000  -0.1705
  -8.250  -0.3024   0.02786   0.02197  -0.1288  0.8377  0.0402  -4.0060   0.0000   0.0000   0.0000  -0.1993
  -8.000  -0.2809   0.02633   0.02015  -0.1288  0.8345  0.0414  -3.8777   0.0000   0.0000   0.0000  -0.2325
  -7.750  -0.2594   0.02467   0.01804  -0.1286  0.8306  0.0427  -3.7726   0.0000   0.0000   0.0000  -0.2709
  -7.500  -0.2360   0.02311   0.01619  -0.1284  0.8278  0.0437  -3.6505   0.0000   0.0000   0.0000  -0.3209
  -7.250  -0.2109   0.02219   0.01523  -0.1284  0.8246  0.0448  -3.4933   0.0000   0.0000   0.0000  -0.3879
  -7.000  -0.1853   0.02135   0.01428  -0.1283  0.8212  0.0462  -3.3449   0.0000   0.0000   0.0000  -0.4741
  -6.750  -0.1592   0.02053   0.01318  -0.1282  0.8185  0.0480  -3.2068   0.0000   0.0000   0.0000  -0.5903
  -6.500  -0.1335   0.01969   0.01233  -0.1282  0.8153  0.0498  -3.0527   0.0000   0.0000   0.0000  -0.7499
  -6.250  -0.1072   0.01913   0.01172  -0.1281  0.8120  0.0518  -2.9050   0.0000   0.0000   0.0000  -0.9934
  -6.000  -0.0800   0.01854   0.01092  -0.1280  0.8094  0.0539  -2.7782   0.0000   0.0000   0.0000  -1.4117
  -5.750  -0.0540   0.01783   0.01029  -0.1279  0.8063  0.0561  -2.6374   0.0000   0.0000   0.0000  -2.2061
  -5.500  -0.0272   0.01745   0.00981  -0.1278  0.8027  0.0593  -2.5008   0.0000   0.0000   0.0000  -4.6151
  -5.250  -0.0005   0.01689   0.00930  -0.1278  0.8001  0.0626  -2.3639   0.0000   0.0000   0.0000  -272.9557
  -5.000   0.0265   0.01646   0.00880  -0.1277  0.7972  0.0664  -2.2446   0.0000   0.0000   0.0000   5.2141
  -4.750   0.0529   0.01610   0.00849  -0.1277  0.7935  0.0708  -2.1206   0.0000   0.0000   0.0000   2.7348
  -4.500   0.0802   0.01570   0.00809  -0.1277  0.7907  0.0763  -1.9952   0.0000   0.0000   0.0000   1.8870
  -4.250   0.1078   0.01535   0.00773  -0.1277  0.7882  0.0833  -1.8715   0.0000   0.0000   0.0000   1.4662
  -4.000   0.1342   0.01510   0.00752  -0.1277  0.7842  0.0926  -1.7523   0.0000   0.0000   0.0000   1.2245
  -3.750   0.1617   0.01474   0.00723  -0.1277  0.7813  0.1059  -1.6378   0.0000   0.0000   0.0000   1.0580
  -3.500   0.1900   0.01439   0.00694  -0.1279  0.7792  0.1263  -1.5261   0.0000   0.0000   0.0000   0.9376
  -3.250   0.2162   0.01417   0.00686  -0.1279  0.7750  0.1534  -1.4181   0.0000   0.0000   0.0000   0.8534
  -3.000   0.2439   0.01391   0.00671  -0.1280  0.7720  0.1871  -1.3063   0.0000   0.0000   0.0000   0.7845
  -2.750   0.2722   0.01362   0.00654  -0.1283  0.7697  0.2274  -1.1937   0.0000   0.0000   0.0000   0.7288
  -2.500   0.2986   0.01344   0.00656  -0.1283  0.7658  0.2773  -1.0882   0.0000   0.0000   0.0000   0.6860
  -2.250   0.3260   0.01322   0.00653  -0.1284  0.7625  0.3389  -0.9890   0.0000   0.0000   0.0000   0.6490
  -2.000   0.3543   0.01297   0.00644  -0.1286  0.7600  0.4017  -0.8897   0.0000   0.0000   0.0000   0.6169
  -1.750   0.3806   0.01284   0.00652  -0.1285  0.7562  0.4638  -0.7963   0.0000   0.0000   0.0000   0.5907
  -1.500   0.4075   0.01267   0.00655  -0.1283  0.7525  0.5291  -0.7702   0.0000   0.0000   0.0000   0.5673
  -1.250   0.4353   0.01247   0.00651  -0.1282  0.7500  0.5920  -0.7866   0.0000   0.0000   0.0000   0.5461
  -1.000   0.4609   0.01242   0.00665  -0.1277  0.7459  0.6508  -0.8029   0.0000   0.0000   0.0000   0.5281
  -0.750   0.4871   0.01235   0.00671  -0.1272  0.7423  0.7031  -0.8210   0.0000   0.0000   0.0000   0.5116
  -0.500   0.5145   0.01223   0.00665  -0.1268  0.7398  0.7480  -0.8405   0.0000   0.0000   0.0000   0.4964
  -0.250   0.5386   0.01222   0.00678  -0.1259  0.7357  0.7897  -0.8576   0.0000   0.0000   0.0000   0.4831
   0.000   0.5626   0.01213   0.00679  -0.1247  0.7320  0.8349  -0.8751   0.0000   0.0000   0.0000   0.4707
   0.250   0.5874   0.01194   0.00666  -0.1234  0.7292  0.8856  -0.8936   0.0000   0.0000   0.0000   0.4586
   0.500   0.6172   0.01191   0.00669  -0.1235  0.7241  0.9458  -0.9168   0.0000   0.0000   0.0000   0.4482
   0.750   0.6638   0.01179   0.00651  -0.1274  0.7206  1.0001  -0.9506   0.0000   0.0000   0.0000   0.4396
   1.000   0.6927   0.01182   0.00644  -0.1277  0.7175  1.0001  -0.9744   0.0000   0.0000   0.0000   0.4317
   1.250   0.7186   0.01195   0.00655  -0.1276  0.7125  1.0001  -0.9959   0.0000   0.0000   0.0000   0.4245
   1.500   0.7484   0.01192   0.00643  -0.1280  0.7093  1.0001  -1.0205   0.0000   0.0000   0.0000   0.4176
   1.750   0.7749   0.01201   0.00650  -0.1278  0.7041  1.0001  -1.0451   0.0000   0.0000   0.0000   0.4112
   2.000   0.8038   0.01198   0.00640  -0.1280  0.6998  1.0001  -1.0736   0.0000   0.0000   0.0000   0.4051
   2.250   0.8317   0.01202   0.00641  -0.1281  0.6953  1.0001  -1.1014   0.0000   0.0000   0.0000   0.3995
   2.500   0.8593   0.01208   0.00644  -0.1281  0.6905  1.0001  -1.1292   0.0000   0.0000   0.0000   0.3943
   2.750   0.8897   0.01204   0.00632  -0.1285  0.6872  1.0001  -1.1600   0.0000   0.0000   0.0000   0.3893
   3.000   0.9149   0.01214   0.00646  -0.1281  0.6808  1.0001  -1.1884   0.0000   0.0000   0.0000   0.3846
   3.250   0.9453   0.01208   0.00632  -0.1285  0.6769  1.0001  -1.2243   0.0000   0.0000   0.0000   0.3802
   3.500   0.9704   0.01218   0.00646  -0.1281  0.6702  1.0001  -1.2560   0.0000   0.0000   0.0000   0.3759
   3.750   0.9995   0.01215   0.00638  -0.1283  0.6652  1.0001  -1.2921   0.0000   0.0000   0.0000   0.3719
   4.000   1.0256   0.01220   0.00644  -0.1280  0.6584  1.0001  -1.3262   0.0000   0.0000   0.0000   0.3680
   4.250   1.0527   0.01224   0.00648  -0.1279  0.6524  1.0001  -1.3612   0.0000   0.0000   0.0000   0.3643
   4.500   1.0805   0.01225   0.00647  -0.1279  0.6464  1.0001  -1.4036   0.0000   0.0000   0.0000   0.3609
   4.750   1.1060   0.01233   0.00658  -0.1275  0.6391  1.0001  -1.4459   0.0000   0.0000   0.0000   0.3574
   5.000   1.1332   0.01235   0.00659  -0.1273  0.6324  1.0001  -1.4907   0.0000   0.0000   0.0000   0.3542
   5.250   1.1595   0.01240   0.00665  -0.1271  0.6249  1.0001  -1.5350   0.0000   0.0000   0.0000   0.3511
   5.500   1.1843   0.01249   0.00678  -0.1266  0.6166  1.0001  -1.5780   0.0000   0.0000   0.0000   0.3480
   5.750   1.2094   0.01256   0.00686  -0.1261  0.6076  1.0001  -1.6219   0.0000   0.0000   0.0000   0.3450
   6.000   1.2341   0.01264   0.00694  -0.1255  0.5977  1.0001  -1.6788   0.0000   0.0000   0.0000   0.3421
   6.250   1.2584   0.01274   0.00704  -0.1249  0.5872  1.0001  -1.7424   0.0000   0.0000   0.0000   0.3393
   6.500   1.2821   0.01288   0.00719  -0.1242  0.5763  1.0001  -1.8075   0.0000   0.0000   0.0000   0.3366
   6.750   1.3053   0.01307   0.00737  -0.1234  0.5651  1.0001  -1.8777   0.0000   0.0000   0.0000   0.3339
   7.000   1.3278   0.01327   0.00760  -0.1225  0.5531  1.0001  -1.9565   0.0000   0.0000   0.0000   0.3312
   7.250   1.3493   0.01351   0.00783  -0.1215  0.5401  1.0001  -2.0372   0.0000   0.0000   0.0000   0.3286
   7.500   1.3691   0.01379   0.00807  -0.1202  0.5252  1.0001  -2.1176   0.0000   0.0000   0.0000   0.3259
   7.750   1.3863   0.01413   0.00839  -0.1184  0.5072  1.0001  -2.1944   0.0000   0.0000   0.0000   0.3232
   8.000   1.4017   0.01455   0.00877  -0.1163  0.4885  1.0001  -2.2909   0.0000   0.0000   0.0000   0.3204
   8.250   1.4155   0.01504   0.00919  -0.1141  0.4705  1.0001  -2.3924   0.0000   0.0000   0.0000   0.3176
   8.500   1.4259   0.01558   0.00969  -0.1112  0.4527  1.0001  -2.4869   0.0000   0.0000   0.0000   0.3146
   8.750   1.4359   0.01624   0.01030  -0.1085  0.4351  1.0001  -2.5814   0.0000   0.0000   0.0000   0.3117
   9.250   1.4526   0.01789   0.01184  -0.1031  0.3986  1.0001  -2.7644   0.0000   0.0000   0.0000   0.3063
   9.500   1.4598   0.01888   0.01278  -0.1005  0.3804  1.0001  -2.8540   0.0000   0.0000   0.0000   0.3037
   9.750   1.4662   0.02000   0.01384  -0.0980  0.3631  1.0001  -2.9446   0.0000   0.0000   0.0000   0.3012
  10.000   1.4732   0.02116   0.01496  -0.0957  0.3456  1.0001  -3.0405   0.0000   0.0000   0.0000   0.2989
  10.250   1.4798   0.02240   0.01617  -0.0935  0.3287  1.0001  -3.1361   0.0000   0.0000   0.0000   0.2967
  10.500   1.4852   0.02378   0.01749  -0.0913  0.3124  1.0001  -3.2286   0.0000   0.0000   0.0000   0.2945
  10.750   1.4911   0.02518   0.01885  -0.0893  0.2965  1.0001  -3.3233   0.0000   0.0000   0.0000   0.2924
  11.000   1.4957   0.02670   0.02034  -0.0872  0.2813  1.0001  -3.4147   0.0000   0.0000   0.0000   0.2904
  11.250   1.5010   0.02823   0.02184  -0.0853  0.2648  1.0001  -3.5087   0.0000   0.0000   0.0000   0.2884
  11.500   1.5046   0.02991   0.02348  -0.0834  0.2490  1.0001  -3.5984   0.0000   0.0000   0.0000   0.2865
  11.750   1.5066   0.03175   0.02525  -0.0814  0.2342  1.0001  -3.6831   0.0000   0.0000   0.0000   0.2846
  12.000   1.5099   0.03352   0.02701  -0.0796  0.2188  1.0001  -3.7725   0.0000   0.0000   0.0000   0.2828
  12.250   1.5127   0.03539   0.02886  -0.0778  0.2035  1.0001  -3.8605   0.0000   0.0000   0.0000   0.2810
  12.500   1.5139   0.03746   0.03087  -0.0761  0.1895  1.0001  -3.9437   0.0000   0.0000   0.0000   0.2793
  12.750   1.5161   0.03950   0.03288  -0.0745  0.1764  1.0001  -4.0297   0.0000   0.0000   0.0000   0.2777
  13.000   1.5175   0.04166   0.03502  -0.0730  0.1640  1.0001  -4.1133   0.0000   0.0000   0.0000   0.2761
  13.250   1.5204   0.04378   0.03713  -0.0717  0.1508  1.0001  -4.2017   0.0000   0.0000   0.0000   0.2747
  13.500   1.5207   0.04618   0.03949  -0.0704  0.1393  1.0001  -4.2816   0.0000   0.0000   0.0000   0.2732
  13.750   1.5212   0.04861   0.04192  -0.0691  0.1284  1.0001  -4.3613   0.0000   0.0000   0.0000   0.2719
  14.000   1.5204   0.05121   0.04450  -0.0679  0.1188  1.0001  -4.4410   0.0000   0.0000   0.0000   0.2705
  14.250   1.5209   0.05376   0.04707  -0.0668  0.1096  1.0001  -4.5262   0.0000   0.0000   0.0000   0.2693
  14.500   1.5214   0.05638   0.04970  -0.0659  0.1012  1.0001  -4.6109   0.0000   0.0000   0.0000   0.2681
  14.750   1.5208   0.05916   0.05249  -0.0650  0.0940  1.0001  -4.6916   0.0000   0.0000   0.0000   0.2670
  15.000   1.5195   0.06205   0.05540  -0.0642  0.0878  1.0001  -4.7685   0.0000   0.0000   0.0000   0.2659
  15.250   1.5176   0.06506   0.05844  -0.0635  0.0823  1.0001  -4.8426   0.0000   0.0000   0.0000   0.2649
  15.500   1.5150   0.06823   0.06163  -0.0629  0.0774  1.0001  -4.9131   0.0000   0.0000   0.0000   0.2640
  15.750   1.5111   0.07161   0.06502  -0.0623  0.0732  1.0001  -4.9778   0.0000   0.0000   0.0000   0.2632
  16.000   1.5102   0.07470   0.06818  -0.0620  0.0687  1.0001  -5.0528   0.0000   0.0000   0.0000   0.2624
  16.250   1.5078   0.07798   0.07153  -0.0617  0.0648  1.0001  -5.1237   0.0000   0.0000   0.0000   0.2617
  16.500   1.5031   0.08159   0.07516  -0.0615  0.0616  1.0001  -5.1886   0.0000   0.0000   0.0000   0.2611
  16.750   1.5010   0.08496   0.07861  -0.0614  0.0581  1.0001  -5.2627   0.0000   0.0000   0.0000   0.2605
  17.000   1.4972   0.08857   0.08227  -0.0614  0.0552  1.0001  -5.3337   0.0000   0.0000   0.0000   0.2601
  17.250   1.4932   0.09227   0.08602  -0.0616  0.0526  1.0001  -5.4043   0.0000   0.0000   0.0000   0.2597
  17.500   1.4901   0.09587   0.08970  -0.0618  0.0500  1.0001  -5.4753   0.0000   0.0000   0.0000   0.2593
  17.750   1.4863   0.09958   0.09344  -0.0621  0.0478  1.0001  -5.5447   0.0000   0.0000   0.0000   0.2590
  18.000   1.4831   0.10319   0.09714  -0.0624  0.0458  1.0001  -5.6127   0.0000   0.0000   0.0000   0.2587
  18.250   1.4806   0.10678   0.10080  -0.0629  0.0439  1.0001  -5.6856   0.0000   0.0000   0.0000   0.2585
  18.500   1.4779   0.11028   0.10429  -0.0633  0.0424  1.0001  -5.7578   0.0000   0.0000   0.0000   0.2583
  18.750   1.4768   0.11378   0.10792  -0.0640  0.0407  1.0001  -5.8342   0.0000   0.0000   0.0000   0.2581
  19.000   1.4758   0.11718   0.11137  -0.0647  0.0393  1.0001  -5.9211   0.0000   0.0000   0.0000   0.2580
  19.250   1.4762   0.12015   0.11431  -0.0651  0.0381  1.0001  -6.0172   0.0000   0.0000   0.0000   0.2576
  19.500   1.4753   0.12369   0.11802  -0.0660  0.0368  1.0001  -6.0963   0.0000   0.0000   0.0000   0.2576
  19.750   1.4755   0.12693   0.12133  -0.0669  0.0357  1.0001  -6.1866   0.0000   0.0000   0.0000   0.2576
  20.000   1.4774   0.12976   0.12416  -0.0676  0.0347  1.0001  -6.2914   0.0000   0.0000   0.0000   0.2573


