xflr5 v6.61

 Calculated polar for: QX0026 root

 1 1 Reynolds number fixed          Mach number fixed         

 xtrf =   1.000 (top)        1.000 (bottom)
 Mach =   0.000     Re =     0.980 e 6     Ncrit =   9.000

  alpha     CL        CD       CDp       Cm    Top Xtr Bot Xtr   Cpmin    Chinge    XCp    
 ------- -------- --------- --------- -------- ------- ------- -------- --------- ---------
 -10.000  -0.5334   0.01654   0.01117  -0.1205  0.7824  0.0206  -6.4076   0.0000   0.0000   0.0000   0.0059
  -9.750  -0.5072   0.01608   0.01060  -0.1205  0.7798  0.0211  -6.1649   0.0000   0.0000   0.0000  -0.0059
  -9.500  -0.4805   0.01567   0.01011  -0.1206  0.7771  0.0214  -5.9213   0.0000   0.0000   0.0000  -0.0196
  -9.250  -0.4557   0.01486   0.00922  -0.1206  0.7743  0.0220  -5.7038   0.0000   0.0000   0.0000  -0.0335
  -9.000  -0.4294   0.01435   0.00868  -0.1207  0.7716  0.0226  -5.4673   0.0000   0.0000   0.0000  -0.0501
  -8.750  -0.4021   0.01406   0.00833  -0.1208  0.7692  0.0233  -5.2241   0.0000   0.0000   0.0000  -0.0699
  -8.500  -0.3746   0.01373   0.00797  -0.1209  0.7665  0.0240  -4.9871   0.0000   0.0000   0.0000  -0.0930
  -8.250  -0.3470   0.01338   0.00757  -0.1211  0.7638  0.0246  -4.7581   0.0000   0.0000   0.0000  -0.1196
  -8.000  -0.3192   0.01309   0.00720  -0.1212  0.7614  0.0251  -4.5330   0.0000   0.0000   0.0000  -0.1511
  -7.750  -0.2928   0.01253   0.00657  -0.1212  0.7591  0.0259  -4.3399   0.0000   0.0000   0.0000  -0.1865
  -7.500  -0.2651   0.01217   0.00621  -0.1214  0.7564  0.0268  -4.1336   0.0000   0.0000   0.0000  -0.2316
  -7.250  -0.2369   0.01192   0.00593  -0.1216  0.7537  0.0278  -3.9271   0.0000   0.0000   0.0000  -0.2885
  -7.000  -0.2087   0.01168   0.00565  -0.1218  0.7513  0.0287  -3.7266   0.0000   0.0000   0.0000  -0.3609
  -6.750  -0.1807   0.01139   0.00528  -0.1219  0.7491  0.0296  -3.5392   0.0000   0.0000   0.0000  -0.4546
  -6.500  -0.1528   0.01101   0.00491  -0.1221  0.7464  0.0309  -3.3638   0.0000   0.0000   0.0000  -0.5826
  -6.250  -0.1244   0.01079   0.00467  -0.1223  0.7437  0.0322  -3.1864   0.0000   0.0000   0.0000  -0.7727
  -6.000  -0.0957   0.01060   0.00444  -0.1225  0.7412  0.0335  -3.0127   0.0000   0.0000   0.0000  -1.0780
  -5.750  -0.0677   0.01030   0.00409  -0.1226  0.7388  0.0353  -2.8462   0.0000   0.0000   0.0000  -1.6280
  -5.500  -0.0389   0.01011   0.00391  -0.1229  0.7360  0.0372  -2.6837   0.0000   0.0000   0.0000  -3.0148
  -5.250  -0.0103   0.00987   0.00366  -0.1231  0.7333  0.0393  -2.5337   0.0000   0.0000   0.0000  -12.0690
  -5.000   0.0184   0.00968   0.00345  -0.1233  0.7309  0.0417  -2.3831   0.0000   0.0000   0.0000   7.1566
  -4.750   0.0472   0.00952   0.00325  -0.1235  0.7287  0.0443  -2.2368   0.0000   0.0000   0.0000   2.9438
  -4.500   0.0760   0.00933   0.00308  -0.1238  0.7260  0.0474  -2.0913   0.0000   0.0000   0.0000   1.9216
  -4.250   0.1048   0.00914   0.00291  -0.1240  0.7233  0.0515  -1.9491   0.0000   0.0000   0.0000   1.4621
  -4.000   0.1337   0.00897   0.00275  -0.1242  0.7208  0.0569  -1.8093   0.0000   0.0000   0.0000   1.2005
  -3.750   0.1626   0.00883   0.00260  -0.1245  0.7185  0.0644  -1.6800   0.0000   0.0000   0.0000   1.0318
  -3.500   0.1915   0.00864   0.00248  -0.1248  0.7158  0.0758  -1.5562   0.0000   0.0000   0.0000   0.9143
  -3.250   0.2204   0.00847   0.00236  -0.1250  0.7129  0.0924  -1.4340   0.0000   0.0000   0.0000   0.8275
  -3.000   0.2492   0.00830   0.00226  -0.1253  0.7103  0.1116  -1.3141   0.0000   0.0000   0.0000   0.7608
  -2.500   0.3071   0.00802   0.00211  -0.1259  0.7043  0.1537  -1.0817   0.0000   0.0000   0.0000   0.6651
  -2.250   0.3360   0.00787   0.00203  -0.1262  0.7012  0.1792  -0.9764   0.0000   0.0000   0.0000   0.6295
  -2.000   0.3649   0.00774   0.00197  -0.1265  0.6985  0.2091  -0.8751   0.0000   0.0000   0.0000   0.5997
  -1.750   0.3937   0.00758   0.00193  -0.1268  0.6956  0.2453  -0.7773   0.0000   0.0000   0.0000   0.5743
  -1.500   0.4225   0.00740   0.00189  -0.1271  0.6923  0.2916  -0.7939   0.0000   0.0000   0.0000   0.5523
  -1.250   0.4512   0.00726   0.00186  -0.1274  0.6890  0.3377  -0.8106   0.0000   0.0000   0.0000   0.5332
  -1.000   0.4800   0.00714   0.00185  -0.1276  0.6855  0.3815  -0.8273   0.0000   0.0000   0.0000   0.5162
  -0.750   0.5087   0.00698   0.00184  -0.1279  0.6815  0.4325  -0.8447   0.0000   0.0000   0.0000   0.5012
  -0.500   0.5372   0.00685   0.00183  -0.1282  0.6780  0.4842  -0.8647   0.0000   0.0000   0.0000   0.4878
  -0.250   0.5659   0.00674   0.00185  -0.1284  0.6744  0.5360  -0.8847   0.0000   0.0000   0.0000   0.4757
   0.000   0.5945   0.00662   0.00187  -0.1286  0.6704  0.5856  -0.9048   0.0000   0.0000   0.0000   0.4647
   0.250   0.6229   0.00655   0.00190  -0.1287  0.6668  0.6309  -0.9249   0.0000   0.0000   0.0000   0.4547
   0.500   0.6514   0.00648   0.00194  -0.1289  0.6626  0.6731  -0.9471   0.0000   0.0000   0.0000   0.4455
   0.750   0.6798   0.00644   0.00197  -0.1290  0.6584  0.7083  -0.9707   0.0000   0.0000   0.0000   0.4370
   1.000   0.7081   0.00641   0.00200  -0.1291  0.6542  0.7393  -0.9943   0.0000   0.0000   0.0000   0.4292
   1.250   0.7362   0.00636   0.00204  -0.1292  0.6493  0.7689  -1.0179   0.0000   0.0000   0.0000   0.4220
   1.500   0.7637   0.00634   0.00208  -0.1291  0.6451  0.8026  -1.0412   0.0000   0.0000   0.0000   0.4152
   1.750   0.7904   0.00625   0.00214  -0.1287  0.6401  0.8480  -1.0661   0.0000   0.0000   0.0000   0.4088
   2.000   0.8142   0.00617   0.00219  -0.1277  0.6352  0.9089  -1.0916   0.0000   0.0000   0.0000   0.4024
   2.250   0.8481   0.00609   0.00220  -0.1288  0.6293  0.9875  -1.1235   0.0000   0.0000   0.0000   0.3971
   2.500   0.8786   0.00616   0.00223  -0.1295  0.6239  1.0001  -1.1541   0.0000   0.0000   0.0000   0.3923
   2.750   0.9071   0.00621   0.00227  -0.1297  0.6179  1.0001  -1.1835   0.0000   0.0000   0.0000   0.3876
   3.000   0.9350   0.00630   0.00233  -0.1298  0.6123  1.0001  -1.2137   0.0000   0.0000   0.0000   0.3831
   3.250   0.9632   0.00637   0.00239  -0.1300  0.6058  1.0001  -1.2478   0.0000   0.0000   0.0000   0.3789
   3.500   0.9910   0.00646   0.00245  -0.1300  0.5993  1.0001  -1.2826   0.0000   0.0000   0.0000   0.3749
   4.000   1.0458   0.00668   0.00262  -0.1301  0.5835  1.0001  -1.3528   0.0000   0.0000   0.0000   0.3674
   4.250   1.0730   0.00681   0.00272  -0.1301  0.5750  1.0001  -1.3880   0.0000   0.0000   0.0000   0.3639
   4.500   1.0999   0.00694   0.00283  -0.1300  0.5657  1.0001  -1.4310   0.0000   0.0000   0.0000   0.3605
   4.750   1.1265   0.00709   0.00294  -0.1299  0.5557  1.0001  -1.4751   0.0000   0.0000   0.0000   0.3573
   5.000   1.1529   0.00725   0.00307  -0.1297  0.5450  1.0001  -1.5193   0.0000   0.0000   0.0000   0.3542
   5.250   1.1790   0.00742   0.00321  -0.1296  0.5334  1.0001  -1.5635   0.0000   0.0000   0.0000   0.3512
   5.500   1.2046   0.00762   0.00337  -0.1293  0.5209  1.0001  -1.6075   0.0000   0.0000   0.0000   0.3483
   5.750   1.2295   0.00784   0.00354  -0.1289  0.5076  1.0001  -1.6513   0.0000   0.0000   0.0000   0.3455
   6.000   1.2536   0.00810   0.00375  -0.1284  0.4934  1.0001  -1.7131   0.0000   0.0000   0.0000   0.3427
   6.250   1.2770   0.00840   0.00398  -0.1277  0.4748  1.0001  -1.7757   0.0000   0.0000   0.0000   0.3400
   6.500   1.2979   0.00880   0.00427  -0.1267  0.4510  1.0001  -1.8383   0.0000   0.0000   0.0000   0.3372
   6.750   1.3182   0.00923   0.00460  -0.1255  0.4285  1.0001  -1.9096   0.0000   0.0000   0.0000   0.3344
   7.000   1.3393   0.00962   0.00491  -0.1245  0.4095  1.0001  -1.9890   0.0000   0.0000   0.0000   0.3318
   7.250   1.3594   0.01003   0.00524  -0.1234  0.3910  1.0001  -2.0691   0.0000   0.0000   0.0000   0.3292
   7.500   1.3777   0.01050   0.00562  -0.1219  0.3719  1.0001  -2.1472   0.0000   0.0000   0.0000   0.3266
   7.750   1.3937   0.01101   0.00604  -0.1201  0.3523  1.0001  -2.2277   0.0000   0.0000   0.0000   0.3239
   8.000   1.4081   0.01153   0.00648  -0.1179  0.3332  1.0001  -2.3299   0.0000   0.0000   0.0000   0.3211
   8.250   1.4227   0.01208   0.00695  -0.1159  0.3150  1.0001  -2.4341   0.0000   0.0000   0.0000   0.3184
   8.500   1.4361   0.01272   0.00752  -0.1138  0.2978  1.0001  -2.5365   0.0000   0.0000   0.0000   0.3158
   8.750   1.4489   0.01343   0.00816  -0.1118  0.2806  1.0001  -2.6387   0.0000   0.0000   0.0000   0.3133
   9.000   1.4614   0.01420   0.00885  -0.1098  0.2619  1.0001  -2.7415   0.0000   0.0000   0.0000   0.3108
   9.250   1.4732   0.01506   0.00962  -0.1079  0.2443  1.0001  -2.8489   0.0000   0.0000   0.0000   0.3085
   9.500   1.4847   0.01598   0.01048  -0.1060  0.2287  1.0001  -2.9576   0.0000   0.0000   0.0000   0.3062
   9.750   1.4963   0.01693   0.01136  -0.1042  0.2135  1.0001  -3.0680   0.0000   0.0000   0.0000   0.3040
  10.000   1.5074   0.01795   0.01231  -0.1024  0.1975  1.0001  -3.1779   0.0000   0.0000   0.0000   0.3019
  10.250   1.5178   0.01904   0.01334  -0.1007  0.1836  1.0001  -3.2871   0.0000   0.0000   0.0000   0.2998
  10.500   1.5276   0.02019   0.01443  -0.0990  0.1714  1.0001  -3.3957   0.0000   0.0000   0.0000   0.2978
  10.750   1.5388   0.02128   0.01549  -0.0974  0.1586  1.0001  -3.5094   0.0000   0.0000   0.0000   0.2959
  11.000   1.5480   0.02251   0.01667  -0.0957  0.1454  1.0001  -3.6182   0.0000   0.0000   0.0000   0.2939
  11.250   1.5562   0.02382   0.01793  -0.0940  0.1339  1.0001  -3.7250   0.0000   0.0000   0.0000   0.2920
  11.500   1.5647   0.02514   0.01921  -0.0923  0.1242  1.0001  -3.8336   0.0000   0.0000   0.0000   0.2901
  11.750   1.5733   0.02647   0.02051  -0.0907  0.1142  1.0001  -3.9434   0.0000   0.0000   0.0000   0.2883
  12.000   1.5802   0.02792   0.02192  -0.0890  0.1038  1.0001  -4.0486   0.0000   0.0000   0.0000   0.2865
  12.250   1.5867   0.02943   0.02339  -0.0873  0.0933  1.0001  -4.1533   0.0000   0.0000   0.0000   0.2847
  12.500   1.5923   0.03104   0.02496  -0.0857  0.0848  1.0001  -4.2556   0.0000   0.0000   0.0000   0.2830
  12.750   1.5988   0.03259   0.02651  -0.0841  0.0779  1.0001  -4.3617   0.0000   0.0000   0.0000   0.2813
  13.000   1.6055   0.03418   0.02809  -0.0827  0.0720  1.0001  -4.4689   0.0000   0.0000   0.0000   0.2796
  13.250   1.6122   0.03581   0.02973  -0.0813  0.0666  1.0001  -4.5770   0.0000   0.0000   0.0000   0.2780
  13.500   1.6187   0.03750   0.03142  -0.0800  0.0618  1.0001  -4.6907   0.0000   0.0000   0.0000   0.2765
  13.750   1.6252   0.03920   0.03313  -0.0787  0.0575  1.0001  -4.8068   0.0000   0.0000   0.0000   0.2750
  14.000   1.6320   0.04091   0.03486  -0.0776  0.0536  1.0001  -4.9245   0.0000   0.0000   0.0000   0.2735
  14.250   1.6382   0.04271   0.03668  -0.0764  0.0500  1.0001  -5.0408   0.0000   0.0000   0.0000   0.2721
  14.500   1.6434   0.04464   0.03863  -0.0753  0.0466  1.0001  -5.1539   0.0000   0.0000   0.0000   0.2708
  14.750   1.6488   0.04660   0.04060  -0.0743  0.0433  1.0001  -5.2681   0.0000   0.0000   0.0000   0.2694
  15.000   1.6540   0.04858   0.04262  -0.0733  0.0403  1.0001  -5.3823   0.0000   0.0000   0.0000   0.2681
  15.250   1.6577   0.05074   0.04480  -0.0723  0.0375  1.0001  -5.4904   0.0000   0.0000   0.0000   0.2669
  15.500   1.6611   0.05297   0.04706  -0.0714  0.0349  1.0001  -5.5975   0.0000   0.0000   0.0000   0.2656
  15.750   1.6645   0.05524   0.04937  -0.0705  0.0324  1.0001  -5.7154   0.0000   0.0000   0.0000   0.2645
  16.000   1.6655   0.05782   0.05198  -0.0697  0.0301  1.0001  -5.8270   0.0000   0.0000   0.0000   0.2633
  16.250   1.6683   0.06023   0.05444  -0.0690  0.0280  1.0001  -5.9478   0.0000   0.0000   0.0000   0.2623
  16.500   1.6682   0.06299   0.05724  -0.0682  0.0263  1.0001  -6.0546   0.0000   0.0000   0.0000   0.2612
  16.750   1.6699   0.06558   0.05990  -0.0677  0.0248  1.0001  -6.1704   0.0000   0.0000   0.0000   0.2602
  17.000   1.6686   0.06857   0.06293  -0.0671  0.0236  1.0001  -6.2718   0.0000   0.0000   0.0000   0.2593
  17.250   1.6684   0.07148   0.06591  -0.0667  0.0226  1.0001  -6.3813   0.0000   0.0000   0.0000   0.2584
  17.500   1.6686   0.07439   0.06889  -0.0663  0.0217  1.0001  -6.4977   0.0000   0.0000   0.0000   0.2576
  17.750   1.6670   0.07756   0.07212  -0.0661  0.0209  1.0001  -6.6049   0.0000   0.0000   0.0000   0.2569
  18.000   1.6625   0.08110   0.07572  -0.0659  0.0202  1.0001  -6.6960   0.0000   0.0000   0.0000   0.2562
  18.250   1.6592   0.08453   0.07924  -0.0658  0.0197  1.0001  -6.7927   0.0000   0.0000   0.0000   0.2556
  18.500   1.6579   0.08776   0.08255  -0.0658  0.0192  1.0001  -6.9016   0.0000   0.0000   0.0000   0.2550
  18.750   1.6555   0.09118   0.08605  -0.0659  0.0187  1.0001  -7.0037   0.0000   0.0000   0.0000   0.2545
  19.000   1.6517   0.09483   0.08977  -0.0662  0.0183  1.0001  -7.0978   0.0000   0.0000   0.0000   0.2541
  19.250   1.6465   0.09870   0.09372  -0.0666  0.0179  1.0001  -7.1829   0.0000   0.0000   0.0000   0.2538
  19.500   1.6392   0.10291   0.09801  -0.0672  0.0175  1.0001  -7.2534   0.0000   0.0000   0.0000   0.2537
  19.750   1.6289   0.10756   0.10274  -0.0679  0.0171  1.0001  -7.3034   0.0000   0.0000   0.0000   0.2537
  20.000   1.6214   0.11190   0.10718  -0.0687  0.0168  1.0001  -7.3680   0.0000   0.0000   0.0000   0.2538


