xflr5 v6.61

 Calculated polar for: QX0026 root

 1 1 Reynolds number fixed          Mach number fixed         

 xtrf =   1.000 (top)        1.000 (bottom)
 Mach =   0.000     Re =     0.500 e 6     Ncrit =   9.000

  alpha     CL        CD       CDp       Cm    Top Xtr Bot Xtr   Cpmin    Chinge    XCp    
 ------- -------- --------- --------- -------- ------- ------- -------- --------- ---------
 -10.000  -0.0796   0.06611   0.06314  -0.0861  0.8076  0.0406  -1.6844   0.0000   0.0000   0.0000  -0.8895
  -9.500  -0.4525   0.02291   0.01733  -0.1237  0.8130  0.0269  -5.4646   0.0000   0.0000   0.0000  -0.0427
  -9.250  -0.4284   0.02212   0.01641  -0.1237  0.8099  0.0277  -5.2603   0.0000   0.0000   0.0000  -0.0584
  -9.000  -0.4045   0.02122   0.01529  -0.1237  0.8071  0.0286  -5.0737   0.0000   0.0000   0.0000  -0.0758
  -8.750  -0.3796   0.02047   0.01429  -0.1237  0.8038  0.0293  -4.8871   0.0000   0.0000   0.0000  -0.0963
  -8.500  -0.3561   0.01911   0.01287  -0.1237  0.8009  0.0300  -4.7079   0.0000   0.0000   0.0000  -0.1183
  -8.250  -0.3302   0.01850   0.01219  -0.1237  0.7985  0.0308  -4.4983   0.0000   0.0000   0.0000  -0.1463
  -8.000  -0.3041   0.01790   0.01153  -0.1238  0.7952  0.0317  -4.2963   0.0000   0.0000   0.0000  -0.1796
  -7.750  -0.2776   0.01735   0.01086  -0.1238  0.7923  0.0327  -4.1053   0.0000   0.0000   0.0000  -0.2197
  -7.500  -0.2506   0.01685   0.01019  -0.1238  0.7899  0.0337  -3.9285   0.0000   0.0000   0.0000  -0.2691
  -7.250  -0.2250   0.01604   0.00940  -0.1238  0.7872  0.0349  -3.7525   0.0000   0.0000   0.0000  -0.3273
  -7.000  -0.1980   0.01558   0.00891  -0.1239  0.7841  0.0360  -3.5701   0.0000   0.0000   0.0000  -0.4048
  -6.750  -0.1707   0.01513   0.00838  -0.1240  0.7814  0.0373  -3.3942   0.0000   0.0000   0.0000  -0.5082
  -6.500  -0.1435   0.01463   0.00777  -0.1240  0.7793  0.0387  -3.2321   0.0000   0.0000   0.0000  -0.6503
  -6.250  -0.1167   0.01416   0.00735  -0.1241  0.7763  0.0403  -3.0696   0.0000   0.0000   0.0000  -0.8563
  -6.000  -0.0889   0.01386   0.00699  -0.1242  0.7733  0.0423  -2.9092   0.0000   0.0000   0.0000  -1.2002
  -5.750  -0.0616   0.01340   0.00649  -0.1243  0.7708  0.0443  -2.7568   0.0000   0.0000   0.0000  -1.8408
  -5.500  -0.0337   0.01309   0.00616  -0.1244  0.7685  0.0465  -2.5994   0.0000   0.0000   0.0000  -3.5662
  -5.250  -0.0061   0.01275   0.00580  -0.1245  0.7652  0.0490  -2.4633   0.0000   0.0000   0.0000  -20.8574
  -5.000   0.0218   0.01244   0.00549  -0.1246  0.7624  0.0521  -2.3224   0.0000   0.0000   0.0000   6.1382
  -4.750   0.0500   0.01215   0.00516  -0.1248  0.7600  0.0557  -2.1850   0.0000   0.0000   0.0000   2.8173
  -4.500   0.0783   0.01193   0.00492  -0.1249  0.7573  0.0600  -2.0491   0.0000   0.0000   0.0000   1.8897
  -4.250   0.1064   0.01167   0.00468  -0.1251  0.7542  0.0653  -1.9152   0.0000   0.0000   0.0000   1.4561
  -4.000   0.1347   0.01140   0.00443  -0.1253  0.7516  0.0728  -1.7828   0.0000   0.0000   0.0000   1.2021
  -3.750   0.1633   0.01116   0.00421  -0.1255  0.7494  0.0837  -1.6595   0.0000   0.0000   0.0000   1.0353
  -3.500   0.1915   0.01092   0.00406  -0.1257  0.7463  0.1005  -1.5419   0.0000   0.0000   0.0000   0.9199
  -3.250   0.2198   0.01069   0.00392  -0.1259  0.7433  0.1233  -1.4242   0.0000   0.0000   0.0000   0.8336
  -3.000   0.2484   0.01049   0.00378  -0.1262  0.7408  0.1489  -1.3069   0.0000   0.0000   0.0000   0.7665
  -2.750   0.2772   0.01031   0.00367  -0.1265  0.7384  0.1775  -1.1912   0.0000   0.0000   0.0000   0.7132
  -2.500   0.3052   0.01012   0.00361  -0.1267  0.7350  0.2099  -1.0797   0.0000   0.0000   0.0000   0.6706
  -2.250   0.3336   0.00990   0.00353  -0.1269  0.7320  0.2513  -0.9778   0.0000   0.0000   0.0000   0.6348
  -2.000   0.3624   0.00969   0.00344  -0.1273  0.7294  0.3033  -0.8773   0.0000   0.0000   0.0000   0.6045
  -1.750   0.3905   0.00951   0.00343  -0.1274  0.7260  0.3561  -0.7811   0.0000   0.0000   0.0000   0.5789
  -1.500   0.4186   0.00933   0.00340  -0.1276  0.7226  0.4083  -0.7869   0.0000   0.0000   0.0000   0.5567
  -1.250   0.4472   0.00915   0.00336  -0.1279  0.7198  0.4648  -0.8035   0.0000   0.0000   0.0000   0.5370
  -1.000   0.4753   0.00899   0.00338  -0.1280  0.7169  0.5255  -0.8197   0.0000   0.0000   0.0000   0.5198
  -0.750   0.5030   0.00886   0.00342  -0.1280  0.7133  0.5806  -0.8378   0.0000   0.0000   0.0000   0.5045
  -0.500   0.5311   0.00872   0.00342  -0.1280  0.7100  0.6355  -0.8575   0.0000   0.0000   0.0000   0.4906
  -0.250   0.5590   0.00864   0.00344  -0.1280  0.7065  0.6838  -0.8772   0.0000   0.0000   0.0000   0.4780
   0.000   0.5864   0.00856   0.00346  -0.1278  0.7021  0.7227  -0.8966   0.0000   0.0000   0.0000   0.4666
   0.250   0.6143   0.00848   0.00344  -0.1277  0.6988  0.7585  -0.9164   0.0000   0.0000   0.0000   0.4561
   0.500   0.6410   0.00841   0.00348  -0.1273  0.6951  0.7951  -0.9376   0.0000   0.0000   0.0000   0.4465
   0.750   0.6668   0.00832   0.00351  -0.1267  0.6910  0.8358  -0.9598   0.0000   0.0000   0.0000   0.4375
   1.000   0.6917   0.00822   0.00349  -0.1258  0.6876  0.8848  -0.9816   0.0000   0.0000   0.0000   0.4289
   1.250   0.7189   0.00812   0.00350  -0.1253  0.6828  0.9487  -1.0046   0.0000   0.0000   0.0000   0.4210
   1.500   0.7610   0.00809   0.00343  -0.1284  0.6787  1.0001  -1.0363   0.0000   0.0000   0.0000   0.4151
   1.750   0.7891   0.00814   0.00345  -0.1285  0.6744  1.0001  -1.0618   0.0000   0.0000   0.0000   0.4089
   2.000   0.8170   0.00819   0.00346  -0.1286  0.6695  1.0001  -1.0896   0.0000   0.0000   0.0000   0.4031
   2.250   0.8454   0.00824   0.00346  -0.1288  0.6653  1.0001  -1.1180   0.0000   0.0000   0.0000   0.3977
   2.500   0.8729   0.00830   0.00352  -0.1288  0.6600  1.0001  -1.1461   0.0000   0.0000   0.0000   0.3926
   3.000   0.9284   0.00840   0.00358  -0.1289  0.6492  1.0001  -1.2054   0.0000   0.0000   0.0000   0.3832
   3.250   0.9562   0.00846   0.00361  -0.1290  0.6436  1.0001  -1.2392   0.0000   0.0000   0.0000   0.3789
   3.500   0.9835   0.00853   0.00367  -0.1289  0.6374  1.0001  -1.2730   0.0000   0.0000   0.0000   0.3748
   3.750   1.0111   0.00861   0.00374  -0.1290  0.6320  1.0001  -1.3080   0.0000   0.0000   0.0000   0.3709
   4.000   1.0383   0.00869   0.00382  -0.1289  0.6256  1.0001  -1.3430   0.0000   0.0000   0.0000   0.3672
   4.250   1.0651   0.00877   0.00390  -0.1288  0.6184  1.0001  -1.3779   0.0000   0.0000   0.0000   0.3637
   4.500   1.0921   0.00887   0.00398  -0.1287  0.6116  1.0001  -1.4203   0.0000   0.0000   0.0000   0.3603
   4.750   1.1186   0.00896   0.00407  -0.1286  0.6037  1.0001  -1.4642   0.0000   0.0000   0.0000   0.3570
   5.000   1.1447   0.00908   0.00418  -0.1283  0.5948  1.0001  -1.5080   0.0000   0.0000   0.0000   0.3538
   5.250   1.1704   0.00921   0.00431  -0.1280  0.5854  1.0001  -1.5518   0.0000   0.0000   0.0000   0.3508
   5.500   1.1959   0.00936   0.00445  -0.1277  0.5755  1.0001  -1.5957   0.0000   0.0000   0.0000   0.3478
   5.750   1.2209   0.00953   0.00460  -0.1273  0.5651  1.0001  -1.6396   0.0000   0.0000   0.0000   0.3449
   6.000   1.2456   0.00972   0.00478  -0.1268  0.5541  1.0001  -1.6997   0.0000   0.0000   0.0000   0.3421
   6.250   1.2698   0.00992   0.00497  -0.1263  0.5427  1.0001  -1.7632   0.0000   0.0000   0.0000   0.3394
   6.500   1.2933   0.01015   0.00518  -0.1256  0.5301  1.0001  -1.8287   0.0000   0.0000   0.0000   0.3367
   6.750   1.3154   0.01043   0.00542  -0.1247  0.5160  1.0001  -1.9011   0.0000   0.0000   0.0000   0.3340
   7.000   1.3360   0.01075   0.00570  -0.1236  0.4980  1.0001  -1.9781   0.0000   0.0000   0.0000   0.3313
   7.250   1.3545   0.01116   0.00603  -0.1220  0.4772  1.0001  -2.0555   0.0000   0.0000   0.0000   0.3286
   7.500   1.3718   0.01161   0.00640  -0.1204  0.4573  1.0001  -2.1318   0.0000   0.0000   0.0000   0.3259
   8.000   1.4015   0.01260   0.00727  -0.1162  0.4211  1.0001  -2.3050   0.0000   0.0000   0.0000   0.3202
   8.250   1.4135   0.01320   0.00780  -0.1137  0.4026  1.0001  -2.4024   0.0000   0.0000   0.0000   0.3174
   8.500   1.4241   0.01392   0.00844  -0.1112  0.3834  1.0001  -2.4975   0.0000   0.0000   0.0000   0.3146
   8.750   1.4343   0.01472   0.00917  -0.1088  0.3649  1.0001  -2.5925   0.0000   0.0000   0.0000   0.3119
   9.000   1.4455   0.01554   0.00994  -0.1066  0.3472  1.0001  -2.6908   0.0000   0.0000   0.0000   0.3094
   9.250   1.4561   0.01645   0.01080  -0.1045  0.3301  1.0001  -2.7887   0.0000   0.0000   0.0000   0.3070
   9.500   1.4657   0.01748   0.01176  -0.1025  0.3126  1.0001  -2.8884   0.0000   0.0000   0.0000   0.3047
   9.750   1.4752   0.01856   0.01279  -0.1005  0.2959  1.0001  -2.9911   0.0000   0.0000   0.0000   0.3025
  10.000   1.4842   0.01972   0.01390  -0.0986  0.2795  1.0001  -3.0935   0.0000   0.0000   0.0000   0.3003
  10.250   1.4925   0.02096   0.01507  -0.0967  0.2620  1.0001  -3.1949   0.0000   0.0000   0.0000   0.2982
  10.500   1.4999   0.02230   0.01634  -0.0948  0.2447  1.0001  -3.2947   0.0000   0.0000   0.0000   0.2962
  10.750   1.5070   0.02369   0.01767  -0.0929  0.2293  1.0001  -3.3941   0.0000   0.0000   0.0000   0.2941
  11.000   1.5139   0.02511   0.01905  -0.0911  0.2141  1.0001  -3.4938   0.0000   0.0000   0.0000   0.2922
  11.500   1.5262   0.02813   0.02195  -0.0875  0.1840  1.0001  -3.6913   0.0000   0.0000   0.0000   0.2884
  11.750   1.5315   0.02974   0.02351  -0.0857  0.1722  1.0001  -3.7881   0.0000   0.0000   0.0000   0.2865
  12.000   1.5387   0.03123   0.02499  -0.0841  0.1597  1.0001  -3.8918   0.0000   0.0000   0.0000   0.2848
  12.250   1.5438   0.03290   0.02662  -0.0825  0.1472  1.0001  -3.9891   0.0000   0.0000   0.0000   0.2830
  12.500   1.5485   0.03464   0.02833  -0.0809  0.1356  1.0001  -4.0858   0.0000   0.0000   0.0000   0.2813
  12.750   1.5521   0.03652   0.03018  -0.0793  0.1255  1.0001  -4.1789   0.0000   0.0000   0.0000   0.2796
  13.000   1.5570   0.03834   0.03199  -0.0779  0.1155  1.0001  -4.2771   0.0000   0.0000   0.0000   0.2781
  13.250   1.5610   0.04028   0.03391  -0.0764  0.1056  1.0001  -4.3723   0.0000   0.0000   0.0000   0.2765
  13.500   1.5646   0.04230   0.03591  -0.0751  0.0963  1.0001  -4.4663   0.0000   0.0000   0.0000   0.2750
  13.750   1.5678   0.04440   0.03801  -0.0738  0.0881  1.0001  -4.5644   0.0000   0.0000   0.0000   0.2736
  14.000   1.5704   0.04661   0.04021  -0.0726  0.0812  1.0001  -4.6621   0.0000   0.0000   0.0000   0.2722
  14.250   1.5729   0.04886   0.04247  -0.0715  0.0753  1.0001  -4.7594   0.0000   0.0000   0.0000   0.2708
  14.500   1.5754   0.05116   0.04479  -0.0704  0.0700  1.0001  -4.8567   0.0000   0.0000   0.0000   0.2695
  14.750   1.5776   0.05353   0.04719  -0.0694  0.0653  1.0001  -4.9534   0.0000   0.0000   0.0000   0.2683
  15.000   1.5792   0.05603   0.04971  -0.0685  0.0612  1.0001  -5.0473   0.0000   0.0000   0.0000   0.2671
  15.250   1.5802   0.05863   0.05235  -0.0677  0.0573  1.0001  -5.1390   0.0000   0.0000   0.0000   0.2660
  15.500   1.5824   0.06115   0.05492  -0.0670  0.0536  1.0001  -5.2348   0.0000   0.0000   0.0000   0.2649
  15.750   1.5827   0.06391   0.05773  -0.0663  0.0504  1.0001  -5.3224   0.0000   0.0000   0.0000   0.2639
  16.000   1.5814   0.06689   0.06074  -0.0657  0.0475  1.0001  -5.4083   0.0000   0.0000   0.0000   0.2630
  16.250   1.5823   0.06970   0.06362  -0.0652  0.0445  1.0001  -5.5061   0.0000   0.0000   0.0000   0.2621
  16.500   1.5795   0.07298   0.06694  -0.0648  0.0420  1.0001  -5.5925   0.0000   0.0000   0.0000   0.2613
  16.750   1.5785   0.07610   0.07013  -0.0645  0.0395  1.0001  -5.6869   0.0000   0.0000   0.0000   0.2605
  17.000   1.5740   0.07969   0.07378  -0.0643  0.0376  1.0001  -5.7631   0.0000   0.0000   0.0000   0.2599
  17.250   1.5716   0.08305   0.07722  -0.0642  0.0356  1.0001  -5.8493   0.0000   0.0000   0.0000   0.2593
  17.500   1.5634   0.08723   0.08144  -0.0642  0.0342  1.0001  -5.9060   0.0000   0.0000   0.0000   0.2589
  17.750   1.5618   0.09062   0.08494  -0.0643  0.0326  1.0001  -5.9936   0.0000   0.0000   0.0000   0.2584
  18.000   1.5570   0.09448   0.08887  -0.0646  0.0313  1.0001  -6.0656   0.0000   0.0000   0.0000   0.2581
  18.250   1.5474   0.09905   0.09349  -0.0651  0.0303  1.0001  -6.1144   0.0000   0.0000   0.0000   0.2580
  18.500   1.5439   0.10280   0.09736  -0.0656  0.0293  1.0001  -6.1954   0.0000   0.0000   0.0000   0.2578
  18.750   1.5392   0.10674   0.10139  -0.0662  0.0284  1.0001  -6.2699   0.0000   0.0000   0.0000   0.2577
  19.000   1.5336   0.11087   0.10560  -0.0670  0.0277  1.0001  -6.3385   0.0000   0.0000   0.0000   0.2577
  19.250   1.5259   0.11536   0.11015  -0.0680  0.0271  1.0001  -6.3929   0.0000   0.0000   0.0000   0.2580
  19.500   1.5168   0.12008   0.11493  -0.0692  0.0265  1.0001  -6.4352   0.0000   0.0000   0.0000   0.2584
  19.750   1.5140   0.12392   0.11889  -0.0702  0.0259  1.0001  -6.5134   0.0000   0.0000   0.0000   0.2585
  20.000   1.5105   0.12790   0.12297  -0.0714  0.0253  1.0001  -6.5865   0.0000   0.0000   0.0000   0.2587


