xflr5 v6.61

 Calculated polar for: QX0026 root

 1 1 Reynolds number fixed          Mach number fixed         

 xtrf =   1.000 (top)        1.000 (bottom)
 Mach =   0.000     Re =     0.140 e 6     Ncrit =   9.000

  alpha     CL        CD       CDp       Cm    Top Xtr Bot Xtr   Cpmin    Chinge    XCp    
 ------- -------- --------- --------- -------- ------- ------- -------- --------- ---------
  -8.250  -0.0925   0.07773   0.07344  -0.1112  0.9173  0.1176  -1.5915   0.0000   0.0000   0.0000  -1.0185
  -8.000  -0.0964   0.07473   0.07046  -0.1139  0.9103  0.1225  -1.6265   0.0000   0.0000   0.0000  -0.9921
  -7.500  -0.1781   0.05126   0.04634  -0.1348  0.8892  0.0861  -2.4796   0.0000   0.0000   0.0000  -0.5392
  -7.250  -0.1975   0.04162   0.03582  -0.1349  0.8818  0.0703  -2.8258   0.0000   0.0000   0.0000  -0.4634
  -7.000  -0.1877   0.03831   0.03199  -0.1344  0.8770  0.0704  -2.8468   0.0000   0.0000   0.0000  -0.4973
  -6.750  -0.1744   0.03552   0.02861  -0.1337  0.8724  0.0712  -2.8469   0.0000   0.0000   0.0000  -0.5493
  -6.500  -0.1614   0.03356   0.02611  -0.1323  0.8671  0.0717  -2.8235   0.0000   0.0000   0.0000  -0.6042
  -6.250  -0.1361   0.03184   0.02421  -0.1325  0.8639  0.0731  -2.7200   0.0000   0.0000   0.0000  -0.7627
  -6.000  -0.1171   0.03107   0.02333  -0.1315  0.8592  0.0751  -2.6130   0.0000   0.0000   0.0000  -0.9169
  -5.750  -0.0921   0.02987   0.02163  -0.1313  0.8556  0.0785  -2.5364   0.0000   0.0000   0.0000  -1.2288
  -5.500  -0.0678   0.02905   0.02087  -0.1311  0.8519  0.0814  -2.4177   0.0000   0.0000   0.0000  -1.7539
  -5.250  -0.0456   0.02832   0.01989  -0.1303  0.8473  0.0846  -2.3310   0.0000   0.0000   0.0000  -2.7104
  -5.000  -0.0129   0.02740   0.01894  -0.1312  0.8453  0.0897  -2.1961   0.0000   0.0000   0.0000  -10.2163
  -4.750   0.0016   0.02724   0.01869  -0.1293  0.8391  0.0939  -2.1214   0.0000   0.0000   0.0000  81.4957
  -4.500   0.0338   0.02648   0.01785  -0.1300  0.8368  0.1005  -2.0101   0.0000   0.0000   0.0000   4.2136
  -4.250   0.0496   0.02651   0.01788  -0.1284  0.8310  0.1068  -1.9249   0.0000   0.0000   0.0000   2.9153
  -3.500   0.1263   0.02543   0.01699  -0.1278  0.8196  0.1426  -1.6153   0.0000   0.0000   0.0000   1.2872
  -3.250   0.1599   0.02476   0.01645  -0.1288  0.8178  0.1696  -1.5049   0.0000   0.0000   0.0000   1.0737
  -3.000   0.1732   0.02504   0.01687  -0.1271  0.8109  0.1955  -1.4322   0.0000   0.0000   0.0000   0.9997
  -2.750   0.2061   0.02441   0.01650  -0.1280  0.8088  0.2453  -1.3178   0.0000   0.0000   0.0000   0.8835
  -2.500   0.2209   0.02472   0.01703  -0.1266  0.8021  0.2935  -1.2386   0.0000   0.0000   0.0000   0.8337
  -2.250   0.2527   0.02423   0.01688  -0.1273  0.7997  0.3762  -1.1243   0.0000   0.0000   0.0000   0.7621
  -1.750   0.2981   0.02425   0.01749  -0.1259  0.7905  0.5372  -0.9465   0.0000   0.0000   0.0000   0.6778
  -1.500   0.3298   0.02383   0.01733  -0.1257  0.7888  0.6231  -0.8418   0.0000   0.0000   0.0000   0.6354
  -1.250   0.3401   0.02453   0.01822  -0.1230  0.7810  0.6835  -0.7815   0.0000   0.0000   0.0000   0.6154
  -1.000   0.3648   0.02442   0.01826  -0.1216  0.7780  0.7511  -0.7170   0.0000   0.0000   0.0000   0.5861
  -0.750   0.3757   0.02490   0.01888  -0.1184  0.7714  0.8090  -0.7245   0.0000   0.0000   0.0000   0.5673
  -0.500   0.4016   0.02450   0.01858  -0.1163  0.7695  0.8870  -0.7438   0.0000   0.0000   0.0000   0.5410
   0.000   0.4686   0.02496   0.01887  -0.1193  0.7600  1.0001  -0.7853   0.0000   0.0000   0.0000   0.5045
   1.000   0.5760   0.02589   0.01936  -0.1195  0.7401  1.0001  -0.8694   0.0000   0.0000   0.0000   0.4554
   1.500   0.6279   0.02641   0.01973  -0.1192  0.7300  1.0001  -0.9107   0.0000   0.0000   0.0000   0.4369
   1.750   0.6667   0.02595   0.01919  -0.1204  0.7287  1.0001  -0.9444   0.0000   0.0000   0.0000   0.4272
   2.250   0.7181   0.02637   0.01952  -0.1198  0.7181  1.0001  -0.9946   0.0000   0.0000   0.0000   0.4127
   2.500   0.7358   0.02694   0.02007  -0.1185  0.7098  1.0001  -1.0135   0.0000   0.0000   0.0000   0.4066
   2.750   0.7733   0.02636   0.01942  -0.1193  0.7074  1.0001  -1.0493   0.0000   0.0000   0.0000   0.3995
   3.000   0.7928   0.02682   0.01988  -0.1183  0.6997  1.0001  -1.0707   0.0000   0.0000   0.0000   0.3940
   3.250   0.8324   0.02613   0.01915  -0.1194  0.6982  1.0001  -1.1119   0.0000   0.0000   0.0000   0.3879
   3.750   0.8764   0.02680   0.01982  -0.1178  0.6850  1.0001  -1.1679   0.0000   0.0000   0.0000   0.3782
   4.000   0.9047   0.02664   0.01966  -0.1176  0.6794  1.0001  -1.2026   0.0000   0.0000   0.0000   0.3734
   4.250   0.9481   0.02554   0.01854  -0.1190  0.6777  1.0001  -1.2518   0.0000   0.0000   0.0000   0.3686
   4.750   1.0100   0.02478   0.01778  -0.1190  0.6671  1.0001  -1.3351   0.0000   0.0000   0.0000   0.3603
   5.000   1.0290   0.02512   0.01818  -0.1177  0.6588  1.0001  -1.3693   0.0000   0.0000   0.0000   0.3564
   5.500   1.0927   0.02420   0.01728  -0.1180  0.6478  1.0001  -1.4678   0.0000   0.0000   0.0000   0.3493
   6.000   1.1596   0.02300   0.01612  -0.1186  0.6358  1.0001  -1.5726   0.0000   0.0000   0.0000   0.3429
   6.250   1.1825   0.02299   0.01616  -0.1176  0.6271  1.0001  -1.6236   0.0000   0.0000   0.0000   0.3397
   6.500   1.2102   0.02276   0.01597  -0.1173  0.6194  1.0001  -1.6913   0.0000   0.0000   0.0000   0.3368
   6.750   1.2493   0.02194   0.01513  -0.1184  0.6134  1.0001  -1.7770   0.0000   0.0000   0.0000   0.3343
   7.000   1.2747   0.02168   0.01490  -0.1176  0.6032  1.0001  -1.8501   0.0000   0.0000   0.0000   0.3314
   7.250   1.3009   0.02139   0.01465  -0.1169  0.5925  1.0001  -1.9340   0.0000   0.0000   0.0000   0.3286
   7.500   1.3268   0.02120   0.01447  -0.1162  0.5816  1.0001  -2.0208   0.0000   0.0000   0.0000   0.3260
   7.750   1.3524   0.02109   0.01438  -0.1156  0.5703  1.0001  -2.1111   0.0000   0.0000   0.0000   0.3234
   8.000   1.3724   0.02120   0.01454  -0.1141  0.5574  1.0001  -2.1926   0.0000   0.0000   0.0000   0.3207
   8.250   1.3901   0.02138   0.01476  -0.1124  0.5432  1.0001  -2.2950   0.0000   0.0000   0.0000   0.3180
   8.500   1.4113   0.02140   0.01476  -0.1110  0.5280  1.0001  -2.4148   0.0000   0.0000   0.0000   0.3154
   8.750   1.4260   0.02165   0.01502  -0.1087  0.5110  1.0001  -2.5203   0.0000   0.0000   0.0000   0.3126
   9.000   1.4432   0.02184   0.01514  -0.1068  0.4938  1.0001  -2.6339   0.0000   0.0000   0.0000   0.3099
   9.250   1.4503   0.02241   0.01571  -0.1035  0.4758  1.0001  -2.7220   0.0000   0.0000   0.0000   0.3068
   9.500   1.4614   0.02296   0.01622  -0.1010  0.4581  1.0001  -2.8219   0.0000   0.0000   0.0000   0.3041
   9.750   1.4711   0.02365   0.01685  -0.0984  0.4403  1.0001  -2.9187   0.0000   0.0000   0.0000   0.3014
  10.000   1.4776   0.02454   0.01772  -0.0955  0.4222  1.0001  -3.0085   0.0000   0.0000   0.0000   0.2988
  10.250   1.4848   0.02548   0.01860  -0.0929  0.4044  1.0001  -3.1053   0.0000   0.0000   0.0000   0.2962
  10.500   1.4900   0.02656   0.01964  -0.0902  0.3865  1.0001  -3.1973   0.0000   0.0000   0.0000   0.2938
  10.750   1.4938   0.02781   0.02085  -0.0875  0.3688  1.0001  -3.2852   0.0000   0.0000   0.0000   0.2913
  11.000   1.4980   0.02910   0.02208  -0.0850  0.3518  1.0001  -3.3751   0.0000   0.0000   0.0000   0.2890
  11.250   1.5002   0.03056   0.02353  -0.0825  0.3347  1.0001  -3.4589   0.0000   0.0000   0.0000   0.2867
  11.500   1.5021   0.03212   0.02507  -0.0800  0.3182  1.0001  -3.5419   0.0000   0.0000   0.0000   0.2846
  11.750   1.5039   0.03373   0.02662  -0.0777  0.3025  1.0001  -3.6255   0.0000   0.0000   0.0000   0.2825
  12.000   1.5045   0.03551   0.02840  -0.0755  0.2865  1.0001  -3.7045   0.0000   0.0000   0.0000   0.2804
  12.250   1.5049   0.03735   0.03018  -0.0733  0.2714  1.0001  -3.7834   0.0000   0.0000   0.0000   0.2785
  12.500   1.5040   0.03935   0.03221  -0.0712  0.2559  1.0001  -3.8574   0.0000   0.0000   0.0000   0.2766
  12.750   1.5029   0.04142   0.03423  -0.0692  0.2417  1.0001  -3.9311   0.0000   0.0000   0.0000   0.2748
  13.000   1.5012   0.04364   0.03644  -0.0673  0.2271  1.0001  -4.0017   0.0000   0.0000   0.0000   0.2731
  13.250   1.4990   0.04598   0.03876  -0.0655  0.2129  1.0001  -4.0705   0.0000   0.0000   0.0000   0.2714
  13.500   1.4959   0.04850   0.04127  -0.0639  0.1990  1.0001  -4.1356   0.0000   0.0000   0.0000   0.2699
  13.750   1.4926   0.05114   0.04388  -0.0624  0.1857  1.0001  -4.1993   0.0000   0.0000   0.0000   0.2684
  14.000   1.4891   0.05389   0.04658  -0.0610  0.1732  1.0001  -4.2624   0.0000   0.0000   0.0000   0.2670
  14.250   1.4858   0.05673   0.04943  -0.0598  0.1608  1.0001  -4.3286   0.0000   0.0000   0.0000   0.2658
  14.500   1.4823   0.05966   0.05236  -0.0588  0.1496  1.0001  -4.3943   0.0000   0.0000   0.0000   0.2646
  14.750   1.4792   0.06261   0.05524  -0.0578  0.1400  1.0001  -4.4610   0.0000   0.0000   0.0000   0.2635
  15.000   1.4766   0.06560   0.05825  -0.0570  0.1304  1.0001  -4.5269   0.0000   0.0000   0.0000   0.2624
  15.250   1.4746   0.06857   0.06122  -0.0562  0.1219  1.0001  -4.5939   0.0000   0.0000   0.0000   0.2614
  15.500   1.4729   0.07153   0.06419  -0.0555  0.1143  1.0001  -4.6612   0.0000   0.0000   0.0000   0.2604
  15.750   1.4715   0.07450   0.06719  -0.0549  0.1073  1.0001  -4.7286   0.0000   0.0000   0.0000   0.2594
  16.000   1.4706   0.07748   0.07019  -0.0544  0.1010  1.0001  -4.7961   0.0000   0.0000   0.0000   0.2586
  16.250   1.4700   0.08043   0.07316  -0.0539  0.0953  1.0001  -4.8677   0.0000   0.0000   0.0000   0.2577
  16.500   1.4702   0.08328   0.07600  -0.0535  0.0900  1.0001  -4.9465   0.0000   0.0000   0.0000   0.2569
  16.750   1.4724   0.08580   0.07845  -0.0531  0.0851  1.0001  -5.0353   0.0000   0.0000   0.0000   0.2559
  17.000   1.4713   0.08897   0.08175  -0.0529  0.0804  1.0001  -5.1043   0.0000   0.0000   0.0000   0.2553
  17.250   1.4726   0.09172   0.08457  -0.0525  0.0762  1.0001  -5.1887   0.0000   0.0000   0.0000   0.2544
  17.500   1.4784   0.09374   0.08653  -0.0520  0.0724  1.0001  -5.2980   0.0000   0.0000   0.0000   0.2533
  17.750   1.4797   0.09659   0.08949  -0.0518  0.0689  1.0001  -5.3800   0.0000   0.0000   0.0000   0.2526
  18.000   1.4835   0.09903   0.09199  -0.0515  0.0658  1.0001  -5.4732   0.0000   0.0000   0.0000   0.2517
  18.250   1.4898   0.10109   0.09403  -0.0512  0.0629  1.0001  -5.5847   0.0000   0.0000   0.0000   0.2508
  18.500   1.4903   0.10412   0.09722  -0.0513  0.0604  1.0001  -5.6597   0.0000   0.0000   0.0000   0.2503
  18.750   1.4941   0.10662   0.09979  -0.0513  0.0581  1.0001  -5.7646   0.0000   0.0000   0.0000   0.2496
  19.000   1.5017   0.10852   0.10172  -0.0510  0.0561  1.0001  -5.8858   0.0000   0.0000   0.0000   0.2486
  19.250   1.4984   0.11224   0.10567  -0.0516  0.0546  1.0001  -5.9388   0.0000   0.0000   0.0000   0.2485
  19.500   1.5048   0.11438   0.10786  -0.0516  0.0529  1.0001  -6.0557   0.0000   0.0000   0.0000   0.2477
  19.750   1.5126   0.11632   0.10985  -0.0514  0.0515  1.0001  -6.1780   0.0000   0.0000   0.0000   0.2468
  20.000   1.4996   0.12174   0.11558  -0.0533  0.0507  1.0001  -6.1669   0.0000   0.0000   0.0000   0.2477


