xflr5 v6.61

 Calculated polar for: NACA 0009

 1 1 Reynolds number fixed          Mach number fixed         

 xtrf =   1.000 (top)        1.000 (bottom)
 Mach =   0.000     Re =     0.260 e 6     Ncrit =   9.000

  alpha     CL        CD       CDp       Cm    Top Xtr Bot Xtr   Cpmin    Chinge    XCp    
 ------- -------- --------- --------- -------- ------- ------- -------- --------- ---------
  -9.750  -0.8929   0.05185   0.04786  -0.0197  1.0000  0.0297  -4.7825   0.0000   0.0000   0.0000   0.2201
  -9.500  -0.9344   0.04012   0.03479  -0.0158  1.0000  0.0262  -5.5073   0.0000   0.0000   0.0000   0.2251
  -9.250  -0.9279   0.03625   0.03043  -0.0140  1.0000  0.0262  -5.5055   0.0000   0.0000   0.0000   0.2271
  -8.750  -0.9010   0.03004   0.02353  -0.0113  1.0000  0.0271  -5.3147   0.0000   0.0000   0.0000   0.2300
  -8.500  -0.8796   0.02891   0.02239  -0.0108  1.0000  0.0284  -5.0567   0.0000   0.0000   0.0000   0.2306
  -8.250  -0.8604   0.02701   0.02014  -0.0097  1.0000  0.0298  -4.9011   0.0000   0.0000   0.0000   0.2318
  -8.000  -0.8400   0.02508   0.01774  -0.0084  1.0000  0.0307  -4.7663   0.0000   0.0000   0.0000   0.2333
  -7.750  -0.8180   0.02307   0.01564  -0.0077  1.0000  0.0318  -4.5725   0.0000   0.0000   0.0000   0.2341
  -7.500  -0.7949   0.02185   0.01434  -0.0070  1.0000  0.0333  -4.3693   0.0000   0.0000   0.0000   0.2349
  -7.250  -0.7713   0.02075   0.01302  -0.0062  1.0000  0.0353  -4.2003   0.0000   0.0000   0.0000   0.2359
  -7.000  -0.7484   0.01955   0.01183  -0.0056  1.0000  0.0376  -4.0015   0.0000   0.0000   0.0000   0.2367
  -6.750  -0.7245   0.01864   0.01080  -0.0048  1.0000  0.0402  -3.8160   0.0000   0.0000   0.0000   0.2377
  -6.500  -0.7018   0.01751   0.00970  -0.0040  1.0000  0.0427  -3.6301   0.0000   0.0000   0.0000   0.2389
  -6.250  -0.6780   0.01678   0.00887  -0.0032  1.0000  0.0464  -3.4381   0.0000   0.0000   0.0000   0.2401
  -6.000  -0.6552   0.01594   0.00808  -0.0024  1.0000  0.0509  -3.2400   0.0000   0.0000   0.0000   0.2413
  -5.750  -0.6325   0.01512   0.00729  -0.0015  1.0000  0.0558  -3.0507   0.0000   0.0000   0.0000   0.2427
  -5.500  -0.6094   0.01443   0.00660  -0.0007  1.0000  0.0628  -2.8773   0.0000   0.0000   0.0000   0.2442
  -5.250  -0.5865   0.01374   0.00595   0.0002  1.0000  0.0722  -2.7121   0.0000   0.0000   0.0000   0.2458
  -5.000  -0.5636   0.01308   0.00535   0.0010  1.0000  0.0859  -2.5458   0.0000   0.0000   0.0000   0.2475
  -4.750  -0.5409   0.01239   0.00480   0.0019  1.0000  0.1085  -2.3806   0.0000   0.0000   0.0000   0.2493
  -4.500  -0.5188   0.01165   0.00432   0.0027  1.0000  0.1496  -2.2163   0.0000   0.0000   0.0000   0.2513
  -4.250  -0.4966   0.01094   0.00394   0.0035  1.0000  0.2138  -2.0540   0.0000   0.0000   0.0000   0.2533
  -4.000  -0.4742   0.01034   0.00364   0.0043  1.0000  0.2849  -1.9047   0.0000   0.0000   0.0000   0.2554
  -3.750  -0.4515   0.00982   0.00342   0.0051  1.0000  0.3540  -1.7564   0.0000   0.0000   0.0000   0.2577
  -3.500  -0.4287   0.00938   0.00324   0.0059  1.0000  0.4199  -1.6101   0.0000   0.0000   0.0000   0.2604
  -3.250  -0.4056   0.00900   0.00310   0.0068  1.0000  0.4828  -1.4709   0.0000   0.0000   0.0000   0.2635
  -3.000  -0.3824   0.00867   0.00300   0.0077  1.0000  0.5427  -1.3437   0.0000   0.0000   0.0000   0.2670
  -2.750  -0.3591   0.00838   0.00293   0.0086  1.0000  0.6002  -1.2191   0.0000   0.0000   0.0000   0.2711
  -2.500  -0.3357   0.00812   0.00290   0.0096  1.0000  0.6556  -1.1045   0.0000   0.0000   0.0000   0.2759
  -2.250  -0.3124   0.00791   0.00289   0.0107  1.0000  0.7087  -0.9967   0.0000   0.0000   0.0000   0.2817
  -2.000  -0.2891   0.00775   0.00292   0.0119  1.0000  0.7598  -0.8978   0.0000   0.0000   0.0000   0.2887
  -1.750  -0.2662   0.00766   0.00300   0.0133  1.0000  0.8072  -0.8060   0.0000   0.0000   0.0000   0.2976
  -1.500  -0.2436   0.00764   0.00311   0.0148  1.0000  0.8514  -0.7235   0.0000   0.0000   0.0000   0.3086
  -1.250  -0.2210   0.00769   0.00324   0.0164  1.0000  0.8916  -0.6487   0.0000   0.0000   0.0000   0.3220
  -1.000  -0.1952   0.00782   0.00341   0.0173  1.0000  0.9274  -0.5774   0.0000   0.0000   0.0000   0.3364
  -0.750  -0.1602   0.00797   0.00357   0.0160  1.0000  0.9565  -0.5044   0.0000   0.0000   0.0000   0.3480
  -0.500  -0.1136   0.00812   0.00369   0.0121  0.9991  0.9756  -0.4318   0.0000   0.0000   0.0000   0.3548
  -0.250  -0.0576   0.00821   0.00376   0.0062  0.9954  0.9856  -0.3653   0.0000   0.0000   0.0000   0.3565
   0.000   0.0000   0.00824   0.00378  -0.0000  0.9913  0.9913  -0.3101   0.0000   0.0000   0.0000   0.3042
   0.250   0.0576   0.00821   0.00376  -0.0062  0.9856  0.9954  -0.3653   0.0000   0.0000   0.0000   0.3565
   0.500   0.1136   0.00812   0.00369  -0.0121  0.9756  0.9991  -0.4318   0.0000   0.0000   0.0000   0.3548
   0.750   0.1602   0.00797   0.00357  -0.0160  0.9565  1.0000  -0.5044   0.0000   0.0000   0.0000   0.3480
   1.000   0.1952   0.00781   0.00341  -0.0172  0.9274  1.0000  -0.5774   0.0000   0.0000   0.0000   0.3364
   1.250   0.2210   0.00769   0.00324  -0.0164  0.8916  1.0000  -0.6486   0.0000   0.0000   0.0000   0.3220
   1.500   0.2436   0.00764   0.00311  -0.0148  0.8514  1.0000  -0.7234   0.0000   0.0000   0.0000   0.3086
   1.750   0.2662   0.00765   0.00300  -0.0133  0.8072  1.0000  -0.8059   0.0000   0.0000   0.0000   0.2976
   2.000   0.2891   0.00775   0.00292  -0.0119  0.7598  1.0000  -0.8977   0.0000   0.0000   0.0000   0.2887
   2.250   0.3123   0.00791   0.00289  -0.0107  0.7088  1.0000  -0.9966   0.0000   0.0000   0.0000   0.2817
   2.500   0.3357   0.00812   0.00290  -0.0096  0.6556  1.0000  -1.1044   0.0000   0.0000   0.0000   0.2759
   2.750   0.3591   0.00838   0.00293  -0.0086  0.6003  1.0000  -1.2190   0.0000   0.0000   0.0000   0.2711
   3.000   0.3824   0.00867   0.00300  -0.0077  0.5427  1.0000  -1.3436   0.0000   0.0000   0.0000   0.2670
   3.250   0.4056   0.00900   0.00310  -0.0068  0.4828  1.0000  -1.4708   0.0000   0.0000   0.0000   0.2635
   3.500   0.4286   0.00938   0.00324  -0.0059  0.4199  1.0000  -1.6100   0.0000   0.0000   0.0000   0.2604
   3.750   0.4515   0.00982   0.00342  -0.0051  0.3541  1.0000  -1.7564   0.0000   0.0000   0.0000   0.2577
   4.000   0.4742   0.01034   0.00364  -0.0043  0.2849  1.0000  -1.9046   0.0000   0.0000   0.0000   0.2554
   4.250   0.4966   0.01094   0.00394  -0.0035  0.2138  1.0000  -2.0539   0.0000   0.0000   0.0000   0.2532
   4.500   0.5187   0.01165   0.00432  -0.0027  0.1496  1.0000  -2.2162   0.0000   0.0000   0.0000   0.2513
   4.750   0.5409   0.01239   0.00480  -0.0019  0.1085  1.0000  -2.3805   0.0000   0.0000   0.0000   0.2493
   5.000   0.5635   0.01308   0.00535  -0.0010  0.0859  1.0000  -2.5458   0.0000   0.0000   0.0000   0.2475
   5.250   0.5865   0.01374   0.00595  -0.0002  0.0722  1.0000  -2.7120   0.0000   0.0000   0.0000   0.2458
   5.500   0.6094   0.01443   0.00660   0.0007  0.0628  1.0000  -2.8773   0.0000   0.0000   0.0000   0.2442
   5.750   0.6325   0.01512   0.00729   0.0015  0.0558  1.0000  -3.0506   0.0000   0.0000   0.0000   0.2427
   6.000   0.6552   0.01594   0.00808   0.0024  0.0509  1.0000  -3.2400   0.0000   0.0000   0.0000   0.2413
   6.250   0.6780   0.01678   0.00887   0.0032  0.0464  1.0000  -3.4381   0.0000   0.0000   0.0000   0.2401
   6.500   0.7019   0.01750   0.00970   0.0040  0.0427  1.0000  -3.6301   0.0000   0.0000   0.0000   0.2389
   6.750   0.7245   0.01864   0.01080   0.0048  0.0402  1.0000  -3.8161   0.0000   0.0000   0.0000   0.2377
   7.000   0.7484   0.01955   0.01183   0.0055  0.0376  1.0000  -4.0016   0.0000   0.0000   0.0000   0.2367
   7.250   0.7713   0.02075   0.01302   0.0062  0.0353  1.0000  -4.2003   0.0000   0.0000   0.0000   0.2359
   7.500   0.7949   0.02185   0.01434   0.0070  0.0333  1.0000  -4.3694   0.0000   0.0000   0.0000   0.2349
   7.750   0.8181   0.02307   0.01564   0.0077  0.0318  1.0000  -4.5726   0.0000   0.0000   0.0000   0.2341
   8.000   0.8401   0.02508   0.01774   0.0084  0.0307  1.0000  -4.7664   0.0000   0.0000   0.0000   0.2333
   8.250   0.8604   0.02701   0.02014   0.0097  0.0298  1.0000  -4.9012   0.0000   0.0000   0.0000   0.2318
   8.500   0.8796   0.02891   0.02239   0.0108  0.0284  1.0000  -5.0569   0.0000   0.0000   0.0000   0.2306
   8.750   0.9010   0.03005   0.02353   0.0113  0.0271  1.0000  -5.3150   0.0000   0.0000   0.0000   0.2300
   9.000   0.9176   0.03300   0.02664   0.0122  0.0264  1.0000  -5.4703   0.0000   0.0000   0.0000   0.2291
   9.250   0.9280   0.03625   0.03044   0.0140  0.0262  1.0000  -5.5056   0.0000   0.0000   0.0000   0.2271
   9.500   0.9345   0.04012   0.03480   0.0157  0.0262  1.0000  -5.5074   0.0000   0.0000   0.0000   0.2252
   9.750   0.9383   0.04434   0.03938   0.0173  0.0263  1.0000  -5.5048   0.0000   0.0000   0.0000   0.2234
  10.000   0.8151   0.04365   0.04002   0.0271  0.0298  1.0000  -4.5201   0.0000   0.0000   0.0000   0.2092
  10.250   0.7948   0.04749   0.04400   0.0286  0.0301  1.0000  -4.4597   0.0000   0.0000   0.0000   0.2062
  10.500   0.7745   0.05177   0.04839   0.0283  0.0303  1.0000  -4.3987   0.0000   0.0000   0.0000   0.2053
  10.750   0.7572   0.05658   0.05328   0.0268  0.0306  1.0000  -4.3493   0.0000   0.0000   0.0000   0.2061
  14.250   0.5345   0.14995   0.14688  -0.0153  0.0405  1.0000  -1.6329   0.0000   0.0000   0.0000   0.2707
  14.500   0.5238   0.15311   0.15003  -0.0183  0.0389  1.0000  -1.4643   0.0000   0.0000   0.0000   0.2770
  14.750   0.5258   0.15565   0.15258  -0.0192  0.0374  1.0000  -1.4685   0.0000   0.0000   0.0000   0.2786
  15.000   0.5346   0.15768   0.15462  -0.0191  0.0361  1.0000  -1.5777   0.0000   0.0000   0.0000   0.2773
  15.250   0.5417   0.16083   0.15778  -0.0192  0.0355  1.0000  -1.6338   0.0000   0.0000   0.0000   0.2769
  15.500   0.5305   0.16396   0.16089  -0.0226  0.0345  1.0000  -1.4318   0.0000   0.0000   0.0000   0.2843
  15.750   0.5322   0.16671   0.16365  -0.0239  0.0331  1.0000  -1.4088   0.0000   0.0000   0.0000   0.2865
  16.000   0.5359   0.16921   0.16615  -0.0249  0.0321  1.0000  -1.4247   0.0000   0.0000   0.0000   0.2877
  16.250   0.5422   0.17156   0.16851  -0.0253  0.0313  1.0000  -1.4862   0.0000   0.0000   0.0000   0.2877
  16.500   0.5568   0.17500   0.17197  -0.0243  0.0309  1.0000  -1.6409   0.0000   0.0000   0.0000   0.2843
  16.750   0.5464   0.17751   0.17446  -0.0277  0.0306  1.0000  -1.4345   0.0000   0.0000   0.0000   0.2916
  17.000   0.5458   0.18054   0.17750  -0.0298  0.0294  1.0000  -1.3405   0.0000   0.0000   0.0000   0.2954
  17.250   0.5490   0.18326   0.18022  -0.0310  0.0284  1.0000  -1.3274   0.0000   0.0000   0.0000   0.2971
  17.500   0.5530   0.18583   0.18280  -0.0320  0.0276  1.0000  -1.3361   0.0000   0.0000   0.0000   0.2983
  17.750   0.5583   0.18831   0.18529  -0.0328  0.0269  1.0000  -1.3722   0.0000   0.0000   0.0000   0.2989
  18.000   0.5679   0.19124   0.18823  -0.0326  0.0265  1.0000  -1.4800   0.0000   0.0000   0.0000   0.2972
  18.250   0.5683   0.19427   0.19125  -0.0343  0.0263  1.0000  -1.4079   0.0000   0.0000   0.0000   0.3001
  18.500   0.5661   0.19718   0.19417  -0.0370  0.0254  1.0000  -1.2556   0.0000   0.0000   0.0000   0.3050
  18.750   0.5695   0.19997   0.19697  -0.0383  0.0242  1.0000  -1.2314   0.0000   0.0000   0.0000   0.3067
  19.000   0.5739   0.20255   0.19955  -0.0394  0.0233  1.0000  -1.2466   0.0000   0.0000   0.0000   0.3078
  19.250   0.5789   0.20508   0.20210  -0.0402  0.0227  1.0000  -1.2932   0.0000   0.0000   0.0000   0.3084
  19.500   0.5874   0.20814   0.20517  -0.0403  0.0223  1.0000  -1.4057   0.0000   0.0000   0.0000   0.3071
  19.750   0.5884   0.21113   0.20816  -0.0420  0.0222  1.0000  -1.3452   0.0000   0.0000   0.0000   0.3098
  20.000   0.5884   0.21409   0.21112  -0.0443  0.0217  1.0000  -1.2353   0.0000   0.0000   0.0000   0.3136


