xflr5 v6.61

 Calculated polar for: NACA 0012

 1 1 Reynolds number fixed          Mach number fixed         

 xtrf =   1.000 (top)        1.000 (bottom)
 Mach =   0.000     Re =     0.860 e 6     Ncrit =   9.000

  alpha     CL        CD       CDp       Cm    Top Xtr Bot Xtr   Cpmin    Chinge    XCp    
 ------- -------- --------- --------- -------- ------- ------- -------- --------- ---------
 -10.000  -1.0732   0.01597   0.00994  -0.0063  1.0000  0.0266  -5.4439   0.0000   0.0000   0.0000   0.2330
  -9.750  -1.0536   0.01532   0.00928  -0.0051  1.0000  0.0280  -5.2539   0.0000   0.0000   0.0000   0.2344
  -9.500  -1.0315   0.01491   0.00885  -0.0041  1.0000  0.0293  -5.0515   0.0000   0.0000   0.0000   0.2355
  -9.250  -1.0092   0.01456   0.00846  -0.0032  1.0000  0.0305  -4.8519   0.0000   0.0000   0.0000   0.2367
  -9.000  -0.9889   0.01406   0.00794  -0.0019  1.0000  0.0321  -4.6663   0.0000   0.0000   0.0000   0.2382
  -8.750  -0.9676   0.01368   0.00755  -0.0007  1.0000  0.0338  -4.4751   0.0000   0.0000   0.0000   0.2397
  -8.500  -0.9455   0.01339   0.00723   0.0003  1.0000  0.0355  -4.2836   0.0000   0.0000   0.0000   0.2410
  -8.250  -0.9251   0.01295   0.00680   0.0017  1.0000  0.0379  -4.1035   0.0000   0.0000   0.0000   0.2428
  -8.000  -0.9035   0.01266   0.00650   0.0028  1.0000  0.0403  -3.9191   0.0000   0.0000   0.0000   0.2444
  -7.750  -0.8829   0.01229   0.00613   0.0042  1.0000  0.0430  -3.7526   0.0000   0.0000   0.0000   0.2462
  -7.500  -0.8615   0.01202   0.00585   0.0054  1.0000  0.0459  -3.5892   0.0000   0.0000   0.0000   0.2481
  -7.250  -0.8410   0.01168   0.00553   0.0068  1.0000  0.0495  -3.4315   0.0000   0.0000   0.0000   0.2501
  -7.000  -0.8199   0.01140   0.00526   0.0081  1.0000  0.0536  -3.2742   0.0000   0.0000   0.0000   0.2521
  -6.750  -0.7987   0.01114   0.00501   0.0093  1.0000  0.0585  -3.1185   0.0000   0.0000   0.0000   0.2542
  -6.500  -0.7776   0.01087   0.00477   0.0106  1.0000  0.0643  -2.9657   0.0000   0.0000   0.0000   0.2563
  -6.000  -0.7097   0.01021   0.00423   0.0076  0.9971  0.0838  -2.6034   0.0000   0.0000   0.0000   0.2538
  -5.750  -0.6750   0.00988   0.00397   0.0059  0.9950  0.0973  -2.4340   0.0000   0.0000   0.0000   0.2521
  -5.500  -0.6396   0.00955   0.00373   0.0041  0.9933  0.1135  -2.2664   0.0000   0.0000   0.0000   0.2500
  -5.250  -0.6053   0.00922   0.00350   0.0026  0.9908  0.1332  -2.1054   0.0000   0.0000   0.0000   0.2479
  -5.000  -0.5701   0.00889   0.00328   0.0009  0.9885  0.1555  -1.9559   0.0000   0.0000   0.0000   0.2453
  -4.750  -0.5344   0.00855   0.00307  -0.0010  0.9866  0.1819  -1.8107   0.0000   0.0000   0.0000   0.2421
  -4.500  -0.5004   0.00822   0.00287  -0.0025  0.9833  0.2093  -1.6725   0.0000   0.0000   0.0000   0.2392
  -4.250  -0.4651   0.00790   0.00268  -0.0042  0.9808  0.2392  -1.5438   0.0000   0.0000   0.0000   0.2352
  -4.000  -0.4335   0.00760   0.00251  -0.0050  0.9755  0.2690  -1.4264   0.0000   0.0000   0.0000   0.2327
  -3.750  -0.4024   0.00733   0.00236  -0.0057  0.9698  0.2989  -1.3172   0.0000   0.0000   0.0000   0.2301
  -3.500  -0.3729   0.00707   0.00221  -0.0060  0.9626  0.3286  -1.2167   0.0000   0.0000   0.0000   0.2283
  -3.250  -0.3452   0.00685   0.00209  -0.0059  0.9536  0.3576  -1.1254   0.0000   0.0000   0.0000   0.2276
  -3.000  -0.3186   0.00664   0.00197  -0.0055  0.9429  0.3861  -1.0401   0.0000   0.0000   0.0000   0.2275
  -2.750  -0.2922   0.00645   0.00187  -0.0050  0.9308  0.4143  -0.9624   0.0000   0.0000   0.0000   0.2277
  -2.500  -0.2660   0.00628   0.00177  -0.0045  0.9175  0.4424  -0.8894   0.0000   0.0000   0.0000   0.2281
  -2.250  -0.2398   0.00613   0.00167  -0.0039  0.9031  0.4703  -0.8215   0.0000   0.0000   0.0000   0.2286
  -2.000  -0.2134   0.00599   0.00160  -0.0034  0.8869  0.4983  -0.7587   0.0000   0.0000   0.0000   0.2290
  -1.750  -0.1869   0.00587   0.00152  -0.0029  0.8693  0.5259  -0.7009   0.0000   0.0000   0.0000   0.2294
  -1.500  -0.1604   0.00578   0.00146  -0.0025  0.8505  0.5534  -0.6477   0.0000   0.0000   0.0000   0.2297
  -1.250  -0.1338   0.00569   0.00140  -0.0020  0.8300  0.5807  -0.5994   0.0000   0.0000   0.0000   0.2300
  -1.000  -0.1071   0.00563   0.00136  -0.0016  0.8085  0.6076  -0.5552   0.0000   0.0000   0.0000   0.2301
  -0.750  -0.0804   0.00558   0.00132  -0.0012  0.7860  0.6343  -0.5151   0.0000   0.0000   0.0000   0.2305
  -0.500  -0.0535   0.00555   0.00130  -0.0008  0.7621  0.6608  -0.4783   0.0000   0.0000   0.0000   0.2303
  -0.250  -0.0267   0.00553   0.00128  -0.0004  0.7377  0.6871  -0.4446   0.0000   0.0000   0.0000   0.2299
   0.000  -0.0000   0.00552   0.00128   0.0000  0.7127  0.7127  -0.4136   0.0000   0.0000   0.0000   0.4454
   0.250   0.0267   0.00553   0.00128   0.0004  0.6871  0.7377  -0.4446   0.0000   0.0000   0.0000   0.2299
   0.500   0.0535   0.00555   0.00130   0.0008  0.6608  0.7621  -0.4783   0.0000   0.0000   0.0000   0.2303
   0.750   0.0804   0.00558   0.00132   0.0012  0.6343  0.7860  -0.5151   0.0000   0.0000   0.0000   0.2305
   1.000   0.1071   0.00563   0.00136   0.0016  0.6076  0.8085  -0.5552   0.0000   0.0000   0.0000   0.2301
   1.250   0.1338   0.00569   0.00140   0.0020  0.5807  0.8300  -0.5994   0.0000   0.0000   0.0000   0.2300
   1.500   0.1604   0.00578   0.00146   0.0025  0.5534  0.8505  -0.6477   0.0000   0.0000   0.0000   0.2297
   1.750   0.1869   0.00587   0.00152   0.0029  0.5259  0.8693  -0.7009   0.0000   0.0000   0.0000   0.2294
   2.000   0.2134   0.00599   0.00160   0.0034  0.4983  0.8869  -0.7587   0.0000   0.0000   0.0000   0.2290
   2.250   0.2398   0.00613   0.00167   0.0039  0.4703  0.9031  -0.8215   0.0000   0.0000   0.0000   0.2286
   2.500   0.2660   0.00628   0.00177   0.0044  0.4424  0.9175  -0.8894   0.0000   0.0000   0.0000   0.2281
   2.750   0.2922   0.00645   0.00187   0.0050  0.4143  0.9308  -0.9624   0.0000   0.0000   0.0000   0.2277
   3.000   0.3186   0.00664   0.00197   0.0055  0.3861  0.9429  -1.0401   0.0000   0.0000   0.0000   0.2275
   3.250   0.3452   0.00685   0.00209   0.0059  0.3576  0.9536  -1.1254   0.0000   0.0000   0.0000   0.2276
   3.500   0.3729   0.00707   0.00221   0.0060  0.3286  0.9626  -1.2167   0.0000   0.0000   0.0000   0.2283
   3.750   0.4024   0.00733   0.00236   0.0057  0.2989  0.9698  -1.3172   0.0000   0.0000   0.0000   0.2301
   4.000   0.4335   0.00760   0.00251   0.0050  0.2690  0.9755  -1.4264   0.0000   0.0000   0.0000   0.2327
   4.250   0.4651   0.00790   0.00268   0.0042  0.2392  0.9808  -1.5438   0.0000   0.0000   0.0000   0.2352
   4.500   0.5004   0.00822   0.00287   0.0025  0.2092  0.9833  -1.6725   0.0000   0.0000   0.0000   0.2392
   4.750   0.5344   0.00855   0.00307   0.0010  0.1819  0.9867  -1.8107   0.0000   0.0000   0.0000   0.2421
   5.000   0.5701   0.00889   0.00328  -0.0009  0.1554  0.9885  -1.9559   0.0000   0.0000   0.0000   0.2453
   5.250   0.6053   0.00922   0.00350  -0.0026  0.1332  0.9908  -2.1054   0.0000   0.0000   0.0000   0.2479
   5.500   0.6396   0.00955   0.00373  -0.0041  0.1135  0.9933  -2.2664   0.0000   0.0000   0.0000   0.2500
   5.750   0.6750   0.00988   0.00397  -0.0059  0.0973  0.9950  -2.4341   0.0000   0.0000   0.0000   0.2521
   6.000   0.7097   0.01021   0.00423  -0.0076  0.0838  0.9971  -2.6035   0.0000   0.0000   0.0000   0.2538
   6.250   0.7447   0.01054   0.00449  -0.0093  0.0726  0.9987  -2.7801   0.0000   0.0000   0.0000   0.2554
   6.500   0.7775   0.01087   0.00477  -0.0105  0.0643  1.0000  -2.9655   0.0000   0.0000   0.0000   0.2563
   6.750   0.7986   0.01114   0.00501  -0.0093  0.0585  1.0000  -3.1182   0.0000   0.0000   0.0000   0.2541
   7.000   0.8198   0.01140   0.00526  -0.0080  0.0537  1.0000  -3.2739   0.0000   0.0000   0.0000   0.2521
   7.250   0.8409   0.01168   0.00553  -0.0068  0.0495  1.0000  -3.4313   0.0000   0.0000   0.0000   0.2501
   7.500   0.8615   0.01202   0.00585  -0.0054  0.0459  1.0000  -3.5890   0.0000   0.0000   0.0000   0.2480
   7.750   0.8828   0.01229   0.00613  -0.0042  0.0430  1.0000  -3.7524   0.0000   0.0000   0.0000   0.2462
   8.000   0.9034   0.01266   0.00650  -0.0028  0.0402  1.0000  -3.9189   0.0000   0.0000   0.0000   0.2444
   8.250   0.9251   0.01295   0.00680  -0.0017  0.0379  1.0000  -4.1033   0.0000   0.0000   0.0000   0.2428
   8.500   0.9455   0.01339   0.00723  -0.0003  0.0355  1.0000  -4.2835   0.0000   0.0000   0.0000   0.2410
   8.750   0.9676   0.01367   0.00755   0.0007  0.0338  1.0000  -4.4750   0.0000   0.0000   0.0000   0.2396
   9.000   0.9889   0.01406   0.00794   0.0019  0.0321  1.0000  -4.6663   0.0000   0.0000   0.0000   0.2382
   9.250   1.0092   0.01456   0.00846   0.0032  0.0305  1.0000  -4.8519   0.0000   0.0000   0.0000   0.2367
   9.500   1.0315   0.01491   0.00885   0.0041  0.0293  1.0000  -5.0515   0.0000   0.0000   0.0000   0.2355
   9.750   1.0536   0.01532   0.00928   0.0051  0.0280  1.0000  -5.2540   0.0000   0.0000   0.0000   0.2344
  10.000   1.0732   0.01597   0.00994   0.0063  0.0266  1.0000  -5.4441   0.0000   0.0000   0.0000   0.2330
  10.250   1.0956   0.01638   0.01040   0.0071  0.0257  1.0000  -5.6516   0.0000   0.0000   0.0000   0.2321
  10.500   1.1178   0.01680   0.01086   0.0080  0.0247  1.0000  -5.8627   0.0000   0.0000   0.0000   0.2311
  10.750   1.1394   0.01727   0.01137   0.0088  0.0238  1.0000  -6.0884   0.0000   0.0000   0.0000   0.2302
  11.000   1.1590   0.01792   0.01204   0.0099  0.0229  1.0000  -6.3079   0.0000   0.0000   0.0000   0.2290
  11.250   1.1763   0.01876   0.01293   0.0113  0.0221  1.0000  -6.5112   0.0000   0.0000   0.0000   0.2276
  11.500   1.1972   0.01926   0.01350   0.0123  0.0216  1.0000  -6.7427   0.0000   0.0000   0.0000   0.2266
  11.750   1.2169   0.01984   0.01414   0.0133  0.0209  1.0000  -6.9709   0.0000   0.0000   0.0000   0.2256
  12.000   1.2359   0.02045   0.01481   0.0144  0.0203  1.0000  -7.1990   0.0000   0.0000   0.0000   0.2245
  12.250   1.2539   0.02110   0.01550   0.0156  0.0198  1.0000  -7.4263   0.0000   0.0000   0.0000   0.2233
  12.500   1.2694   0.02189   0.01634   0.0171  0.0193  1.0000  -7.6408   0.0000   0.0000   0.0000   0.2219
  12.750   1.2766   0.02311   0.01762   0.0196  0.0187  1.0000  -7.8012   0.0000   0.0000   0.0000   0.2196
  13.000   1.2860   0.02405   0.01864   0.0219  0.0183  1.0000  -7.9802   0.0000   0.0000   0.0000   0.2175
  13.250   1.2994   0.02478   0.01946   0.0235  0.0180  1.0000  -8.1888   0.0000   0.0000   0.0000   0.2160
  13.500   1.3110   0.02567   0.02043   0.0251  0.0176  1.0000  -8.3873   0.0000   0.0000   0.0000   0.2145
  13.750   1.3209   0.02671   0.02156   0.0267  0.0172  1.0000  -8.5763   0.0000   0.0000   0.0000   0.2131
  14.000   1.3296   0.02791   0.02284   0.0282  0.0169  1.0000  -8.7573   0.0000   0.0000   0.0000   0.2117
  14.250   1.3373   0.02925   0.02427   0.0294  0.0166  1.0000  -8.9333   0.0000   0.0000   0.0000   0.2104
  14.500   1.3439   0.03079   0.02588   0.0303  0.0163  1.0000  -9.1026   0.0000   0.0000   0.0000   0.2093
  14.750   1.3490   0.03258   0.02776   0.0310  0.0161  1.0000  -9.2611   0.0000   0.0000   0.0000   0.2084
  15.000   1.3515   0.03477   0.03003   0.0313  0.0158  1.0000  -9.3989   0.0000   0.0000   0.0000   0.2077
  15.250   1.3503   0.03753   0.03288   0.0312  0.0156  1.0000  -9.5048   0.0000   0.0000   0.0000   0.2072
  15.500   1.3444   0.04105   0.03652   0.0305  0.0154  1.0000  -9.5668   0.0000   0.0000   0.0000   0.2070
  15.750   1.3328   0.04552   0.04113   0.0291  0.0151  1.0000  -9.5748   0.0000   0.0000   0.0000   0.2073
  16.000   1.3217   0.05022   0.04597   0.0273  0.0150  1.0000  -9.5800   0.0000   0.0000   0.0000   0.2079
  16.250   1.3177   0.05424   0.05012   0.0254  0.0149  1.0000  -9.6499   0.0000   0.0000   0.0000   0.2086
  16.500   1.3107   0.05876   0.05477   0.0233  0.0148  1.0000  -9.6958   0.0000   0.0000   0.0000   0.2096
  16.750   1.3012   0.06379   0.05992   0.0208  0.0148  1.0000  -9.7140   0.0000   0.0000   0.0000   0.2108
  17.000   1.2889   0.06928   0.06554   0.0180  0.0147  1.0000  -9.7030   0.0000   0.0000   0.0000   0.2122
  17.250   1.2745   0.07524   0.07163   0.0150  0.0146  1.0000  -9.6654   0.0000   0.0000   0.0000   0.2138
  17.500   1.2585   0.08159   0.07811   0.0117  0.0146  1.0000  -9.6055   0.0000   0.0000   0.0000   0.2157
  17.750   1.2409   0.08831   0.08496   0.0083  0.0145  1.0000  -9.5221   0.0000   0.0000   0.0000   0.2178
  18.000   1.2225   0.09535   0.09213   0.0046  0.0145  1.0000  -9.4211   0.0000   0.0000   0.0000   0.2201
  18.250   1.2033   0.10263   0.09952   0.0008  0.0145  1.0000  -9.3023   0.0000   0.0000   0.0000   0.2227
  18.500   1.1837   0.11015   0.10716  -0.0031  0.0144  1.0000  -9.1673   0.0000   0.0000   0.0000   0.2255
  18.750   1.1639   0.11791   0.11505  -0.0073  0.0144  1.0000  -9.0154   0.0000   0.0000   0.0000   0.2286
  19.000   1.1434   0.12592   0.12317  -0.0116  0.0143  1.0000  -8.8417   0.0000   0.0000   0.0000   0.2320
  19.250   1.1223   0.13432   0.13170  -0.0163  0.0143  1.0000  -8.6406   0.0000   0.0000   0.0000   0.2359
  19.500   1.0995   0.14338   0.14088  -0.0214  0.0142  1.0000  -8.3941   0.0000   0.0000   0.0000   0.2405
  19.750   1.0720   0.15379   0.15143  -0.0275  0.0142  1.0000  -8.0522   0.0000   0.0000   0.0000   0.2463


