xflr5 v6.61

 Calculated polar for: NACA 0009

 1 1 Reynolds number fixed          Mach number fixed         

 xtrf =   1.000 (top)        1.000 (bottom)
 Mach =   0.000     Re =     0.920 e 6     Ncrit =   9.000

  alpha     CL        CD       CDp       Cm    Top Xtr Bot Xtr   Cpmin    Chinge    XCp    
 ------- -------- --------- --------- -------- ------- ------- -------- --------- ---------
 -10.000  -1.0559   0.01936   0.01417  -0.0074  1.0000  0.0113  -7.9961   0.0000   0.0000   0.0000   0.2337
  -9.750  -1.0329   0.01873   0.01345  -0.0069  1.0000  0.0117  -7.6682   0.0000   0.0000   0.0000   0.2344
  -9.500  -1.0109   0.01790   0.01250  -0.0062  1.0000  0.0121  -7.3651   0.0000   0.0000   0.0000   0.2353
  -9.250  -0.9911   0.01671   0.01122  -0.0052  1.0000  0.0127  -7.0898   0.0000   0.0000   0.0000   0.2364
  -9.000  -0.9677   0.01609   0.01057  -0.0047  1.0000  0.0132  -6.7677   0.0000   0.0000   0.0000   0.2371
  -8.750  -0.9437   0.01553   0.00995  -0.0042  1.0000  0.0137  -6.4518   0.0000   0.0000   0.0000   0.2379
  -8.500  -0.9196   0.01498   0.00932  -0.0036  1.0000  0.0144  -6.1439   0.0000   0.0000   0.0000   0.2386
  -8.250  -0.8948   0.01452   0.00879  -0.0032  1.0000  0.0149  -5.8359   0.0000   0.0000   0.0000   0.2393
  -8.000  -0.8725   0.01365   0.00785  -0.0024  1.0000  0.0158  -5.5638   0.0000   0.0000   0.0000   0.2403
  -7.750  -0.8478   0.01317   0.00735  -0.0020  1.0000  0.0166  -5.2758   0.0000   0.0000   0.0000   0.2410
  -7.500  -0.8227   0.01278   0.00692  -0.0016  1.0000  0.0176  -5.0078   0.0000   0.0000   0.0000   0.2417
  -7.250  -0.7972   0.01244   0.00653  -0.0011  1.0000  0.0186  -4.7438   0.0000   0.0000   0.0000   0.2424
  -7.000  -0.7733   0.01185   0.00593  -0.0005  1.0000  0.0201  -4.4978   0.0000   0.0000   0.0000   0.2434
  -6.750  -0.7481   0.01151   0.00555  -0.0001  1.0000  0.0216  -4.2435   0.0000   0.0000   0.0000   0.2442
  -6.500  -0.7235   0.01107   0.00509   0.0005  1.0000  0.0232  -4.0030   0.0000   0.0000   0.0000   0.2452
  -6.250  -0.6986   0.01073   0.00474   0.0010  1.0000  0.0252  -3.7582   0.0000   0.0000   0.0000   0.2462
  -5.750  -0.6492   0.01012   0.00411   0.0023  1.0000  0.0307  -3.2870   0.0000   0.0000   0.0000   0.2486
  -5.500  -0.6249   0.00978   0.00379   0.0029  1.0000  0.0346  -3.0710   0.0000   0.0000   0.0000   0.2500
  -5.250  -0.6005   0.00949   0.00351   0.0036  1.0000  0.0394  -2.8729   0.0000   0.0000   0.0000   0.2516
  -5.000  -0.5762   0.00922   0.00326   0.0043  1.0000  0.0459  -2.6778   0.0000   0.0000   0.0000   0.2532
  -4.750  -0.5523   0.00892   0.00302   0.0051  1.0000  0.0553  -2.4876   0.0000   0.0000   0.0000   0.2551
  -4.500  -0.5284   0.00865   0.00281   0.0058  1.0000  0.0682  -2.3017   0.0000   0.0000   0.0000   0.2571
  -4.250  -0.5046   0.00837   0.00262   0.0066  1.0000  0.0862  -2.1202   0.0000   0.0000   0.0000   0.2592
  -4.000  -0.4809   0.00807   0.00243   0.0073  1.0000  0.1110  -1.9558   0.0000   0.0000   0.0000   0.2616
  -3.750  -0.4572   0.00777   0.00228   0.0080  1.0000  0.1418  -1.8003   0.0000   0.0000   0.0000   0.2640
  -3.500  -0.4226   0.00739   0.00210   0.0063  0.9982  0.1875  -1.6172   0.0000   0.0000   0.0000   0.2615
  -3.250  -0.3874   0.00701   0.00193   0.0044  0.9960  0.2394  -1.4427   0.0000   0.0000   0.0000   0.2582
  -3.000  -0.3519   0.00664   0.00178   0.0026  0.9937  0.2950  -1.2852   0.0000   0.0000   0.0000   0.2541
  -2.750  -0.3169   0.00630   0.00166   0.0008  0.9907  0.3503  -1.1352   0.0000   0.0000   0.0000   0.2494
  -2.500  -0.2809   0.00598   0.00154  -0.0011  0.9879  0.4053  -1.0003   0.0000   0.0000   0.0000   0.2429
  -2.250  -0.2468   0.00570   0.00144  -0.0026  0.9833  0.4577  -0.8791   0.0000   0.0000   0.0000   0.2364
  -2.000  -0.2140   0.00543   0.00136  -0.0037  0.9771  0.5080  -0.7716   0.0000   0.0000   0.0000   0.2297
  -1.750  -0.1831   0.00520   0.00129  -0.0043  0.9683  0.5555  -0.6786   0.0000   0.0000   0.0000   0.2235
  -1.500  -0.1542   0.00499   0.00123  -0.0044  0.9569  0.6005  -0.5987   0.0000   0.0000   0.0000   0.2183
  -1.250  -0.1274   0.00481   0.00118  -0.0040  0.9425  0.6432  -0.5306   0.0000   0.0000   0.0000   0.2158
  -1.000  -0.1018   0.00466   0.00114  -0.0032  0.9251  0.6837  -0.4727   0.0000   0.0000   0.0000   0.2152
  -0.750  -0.0764   0.00453   0.00110  -0.0024  0.9045  0.7223  -0.4227   0.0000   0.0000   0.0000   0.2153
  -0.250  -0.0256   0.00439   0.00105  -0.0008  0.8549  0.7937  -0.3428   0.0000   0.0000   0.0000   0.2164
   0.000  -0.0000   0.00438   0.00105   0.0000  0.8258  0.8259  -0.3106   0.0000   0.0000   0.0000   0.4967
   0.250   0.0256   0.00439   0.00105   0.0008  0.7937  0.8549  -0.3428   0.0000   0.0000   0.0000   0.2164
   0.750   0.0764   0.00453   0.00110   0.0024  0.7223  0.9045  -0.4227   0.0000   0.0000   0.0000   0.2153
   1.000   0.1018   0.00466   0.00114   0.0032  0.6837  0.9251  -0.4727   0.0000   0.0000   0.0000   0.2152
   1.250   0.1274   0.00481   0.00118   0.0040  0.6432  0.9425  -0.5306   0.0000   0.0000   0.0000   0.2158
   1.500   0.1542   0.00499   0.00123   0.0044  0.6005  0.9569  -0.5987   0.0000   0.0000   0.0000   0.2183
   1.750   0.1831   0.00520   0.00129   0.0043  0.5555  0.9683  -0.6786   0.0000   0.0000   0.0000   0.2234
   2.000   0.2140   0.00543   0.00136   0.0037  0.5080  0.9771  -0.7716   0.0000   0.0000   0.0000   0.2297
   2.250   0.2468   0.00570   0.00144   0.0026  0.4577  0.9833  -0.8791   0.0000   0.0000   0.0000   0.2364
   2.500   0.2810   0.00598   0.00154   0.0011  0.4053  0.9879  -1.0003   0.0000   0.0000   0.0000   0.2429
   2.750   0.3169   0.00630   0.00166  -0.0008  0.3503  0.9907  -1.1352   0.0000   0.0000   0.0000   0.2494
   3.000   0.3519   0.00664   0.00178  -0.0026  0.2950  0.9937  -1.2852   0.0000   0.0000   0.0000   0.2541
   3.250   0.3874   0.00701   0.00193  -0.0044  0.2394  0.9961  -1.4427   0.0000   0.0000   0.0000   0.2582
   3.500   0.4226   0.00739   0.00210  -0.0063  0.1875  0.9982  -1.6172   0.0000   0.0000   0.0000   0.2615
   3.750   0.4572   0.00777   0.00228  -0.0080  0.1418  1.0000  -1.8002   0.0000   0.0000   0.0000   0.2640
   4.000   0.4809   0.00807   0.00243  -0.0073  0.1110  1.0000  -1.9556   0.0000   0.0000   0.0000   0.2615
   4.250   0.5045   0.00837   0.00262  -0.0066  0.0862  1.0000  -2.1201   0.0000   0.0000   0.0000   0.2592
   4.500   0.5283   0.00865   0.00281  -0.0058  0.0682  1.0000  -2.3015   0.0000   0.0000   0.0000   0.2570
   4.750   0.5522   0.00892   0.00302  -0.0051  0.0553  1.0000  -2.4875   0.0000   0.0000   0.0000   0.2550
   5.000   0.5762   0.00922   0.00326  -0.0043  0.0459  1.0000  -2.6777   0.0000   0.0000   0.0000   0.2532
   5.250   0.6005   0.00949   0.00351  -0.0036  0.0394  1.0000  -2.8728   0.0000   0.0000   0.0000   0.2516
   5.500   0.6248   0.00978   0.00379  -0.0029  0.0346  1.0000  -3.0708   0.0000   0.0000   0.0000   0.2500
   5.750   0.6491   0.01012   0.00411  -0.0022  0.0307  1.0000  -3.2869   0.0000   0.0000   0.0000   0.2486
   6.000   0.6739   0.01038   0.00438  -0.0016  0.0277  1.0000  -3.5224   0.0000   0.0000   0.0000   0.2474
   6.250   0.6985   0.01073   0.00474  -0.0010  0.0252  1.0000  -3.7581   0.0000   0.0000   0.0000   0.2462
   6.500   0.7234   0.01107   0.00508  -0.0005  0.0232  1.0000  -4.0030   0.0000   0.0000   0.0000   0.2452
   6.750   0.7481   0.01151   0.00555   0.0001  0.0216  1.0000  -4.2434   0.0000   0.0000   0.0000   0.2442
   7.000   0.7733   0.01185   0.00593   0.0005  0.0201  1.0000  -4.4978   0.0000   0.0000   0.0000   0.2434
   7.250   0.7972   0.01244   0.00653   0.0011  0.0186  1.0000  -4.7438   0.0000   0.0000   0.0000   0.2424
   7.500   0.8227   0.01278   0.00692   0.0016  0.0176  1.0000  -5.0078   0.0000   0.0000   0.0000   0.2417
   7.750   0.8478   0.01317   0.00735   0.0020  0.0166  1.0000  -5.2759   0.0000   0.0000   0.0000   0.2410
   8.000   0.8725   0.01365   0.00785   0.0024  0.0158  1.0000  -5.5639   0.0000   0.0000   0.0000   0.2403
   8.250   0.8949   0.01452   0.00879   0.0032  0.0149  1.0000  -5.8360   0.0000   0.0000   0.0000   0.2393
   8.500   0.9196   0.01498   0.00932   0.0036  0.0144  1.0000  -6.1441   0.0000   0.0000   0.0000   0.2386
   8.750   0.9438   0.01553   0.00995   0.0042  0.0137  1.0000  -6.4520   0.0000   0.0000   0.0000   0.2379
   9.000   0.9677   0.01609   0.01057   0.0047  0.0132  1.0000  -6.7680   0.0000   0.0000   0.0000   0.2372
   9.250   0.9912   0.01671   0.01122   0.0052  0.0127  1.0000  -7.0901   0.0000   0.0000   0.0000   0.2364
   9.500   1.0110   0.01790   0.01250   0.0061  0.0121  1.0000  -7.3653   0.0000   0.0000   0.0000   0.2353
   9.750   1.0330   0.01873   0.01345   0.0069  0.0117  1.0000  -7.6687   0.0000   0.0000   0.0000   0.2345
  10.000   1.0560   0.01936   0.01417   0.0074  0.0113  1.0000  -7.9966   0.0000   0.0000   0.0000   0.2337
  10.250   1.0777   0.02016   0.01508   0.0081  0.0109  1.0000  -8.3108   0.0000   0.0000   0.0000   0.2329
  10.500   1.0988   0.02100   0.01603   0.0089  0.0106  1.0000  -8.6266   0.0000   0.0000   0.0000   0.2321
  10.750   1.1195   0.02185   0.01698   0.0096  0.0102  1.0000  -8.9497   0.0000   0.0000   0.0000   0.2312
  11.000   1.1396   0.02272   0.01793   0.0104  0.0099  1.0000  -9.2778   0.0000   0.0000   0.0000   0.2303
  11.250   1.1579   0.02376   0.01906   0.0113  0.0097  1.0000  -9.5929   0.0000   0.0000   0.0000   0.2293
  11.500   1.1708   0.02550   0.02095   0.0127  0.0094  1.0000  -9.8293   0.0000   0.0000   0.0000   0.2279
  11.750   1.1736   0.02851   0.02427   0.0150  0.0091  1.0000  -9.9086   0.0000   0.0000   0.0000   0.2257
  12.000   1.1871   0.02981   0.02573   0.0163  0.0090  1.0000  -10.1716   0.0000   0.0000   0.0000   0.2244
  12.250   1.1972   0.03137   0.02747   0.0177  0.0089  1.0000  -10.3988   0.0000   0.0000   0.0000   0.2229
  12.500   1.2024   0.03317   0.02945   0.0196  0.0088  1.0000  -10.5810   0.0000   0.0000   0.0000   0.2211
  12.750   1.2001   0.03516   0.03161   0.0222  0.0087  1.0000  -10.7257   0.0000   0.0000   0.0000   0.2186
  13.000   1.1944   0.03764   0.03428   0.0239  0.0086  1.0000  -10.8285   0.0000   0.0000   0.0000   0.2166
  13.250   1.1858   0.04085   0.03769   0.0243  0.0086  1.0000  -10.8861   0.0000   0.0000   0.0000   0.2157
  13.500   1.1741   0.04513   0.04216   0.0229  0.0085  1.0000  -10.8888   0.0000   0.0000   0.0000   0.2162
  13.750   1.1590   0.05093   0.04817   0.0191  0.0085  1.0000  -10.8186   0.0000   0.0000   0.0000   0.2187
  14.000   1.1391   0.05879   0.05624   0.0129  0.0085  1.0000  -10.6449   0.0000   0.0000   0.0000   0.2233
  14.250   1.1120   0.06906   0.06671   0.0049  0.0086  1.0000  -10.3275   0.0000   0.0000   0.0000   0.2297
  14.500   1.0753   0.08168   0.07953  -0.0037  0.0087  1.0000  -9.8293   0.0000   0.0000   0.0000   0.2373
  14.750   1.0248   0.09717   0.09517  -0.0129  0.0089  1.0000  -9.0704   0.0000   0.0000   0.0000   0.2463
  16.000   0.7783   0.19355   0.19178  -0.0549  0.0119  1.0000  -2.6525   0.0000   0.0000   0.0000   0.3072
  16.250   0.7826   0.19904   0.19726  -0.0578  0.0118  1.0000  -2.4968   0.0000   0.0000   0.0000   0.3104
  16.500   0.7864   0.20551   0.20372  -0.0615  0.0106  1.0000  -2.2334   0.0000   0.0000   0.0000   0.3148
  16.750   0.7933   0.20916   0.20737  -0.0635  0.0102  1.0000  -2.2353   0.0000   0.0000   0.0000   0.3162
  17.000   0.8006   0.21256   0.21078  -0.0653  0.0098  1.0000  -2.2621   0.0000   0.0000   0.0000   0.3175
  17.250   0.8083   0.21568   0.21390  -0.0671  0.0096  1.0000  -2.3133   0.0000   0.0000   0.0000   0.3185
  17.500   0.8162   0.21854   0.21676  -0.0687  0.0094  1.0000  -2.3900   0.0000   0.0000   0.0000   0.3192
  17.750   0.8246   0.22113   0.21935  -0.0700  0.0093  1.0000  -2.4987   0.0000   0.0000   0.0000   0.3194
  18.000   0.8304   0.22530   0.22352  -0.0716  0.0091  1.0000  -2.4675   0.0000   0.0000   0.0000   0.3205
  18.250   0.8373   0.22965   0.22788  -0.0740  0.0091  1.0000  -2.4117   0.0000   0.0000   0.0000   0.3224
  18.500   0.8436   0.23459   0.23280  -0.0771  0.0090  1.0000  -2.2882   0.0000   0.0000   0.0000   0.3252
  18.750   0.8510   0.24024   0.23845  -0.0805  0.0084  1.0000  -2.0909   0.0000   0.0000   0.0000   0.3283
  19.000   0.8590   0.24395   0.24216  -0.0827  0.0080  1.0000  -2.0922   0.0000   0.0000   0.0000   0.3296
  19.250   0.8671   0.24737   0.24559  -0.0848  0.0076  1.0000  -2.1196   0.0000   0.0000   0.0000   0.3308
  19.500   0.8752   0.25059   0.24881  -0.0869  0.0074  1.0000  -2.1614   0.0000   0.0000   0.0000   0.3319
  19.750   0.8834   0.25379   0.25202  -0.0890  0.0072  1.0000  -2.2098   0.0000   0.0000   0.0000   0.3329
  20.000   0.8915   0.25682   0.25504  -0.0910  0.0071  1.0000  -2.2706   0.0000   0.0000   0.0000   0.3338


