xflr5 v6.61

 Calculated polar for: NACA 0012

 1 1 Reynolds number fixed          Mach number fixed         

 xtrf =   1.000 (top)        1.000 (bottom)
 Mach =   0.000     Re =     0.400 e 6     Ncrit =   9.000

  alpha     CL        CD       CDp       Cm    Top Xtr Bot Xtr   Cpmin    Chinge    XCp    
 ------- -------- --------- --------- -------- ------- ------- -------- --------- ---------
 -10.000  -1.0317   0.02109   0.01420  -0.0126  1.0000  0.0365  -5.1161   0.0000   0.0000   0.0000   0.2267
  -9.750  -1.0131   0.02034   0.01345  -0.0114  1.0000  0.0379  -4.9389   0.0000   0.0000   0.0000   0.2280
  -9.500  -0.9928   0.01974   0.01278  -0.0102  1.0000  0.0397  -4.7597   0.0000   0.0000   0.0000   0.2292
  -9.250  -0.9740   0.01898   0.01197  -0.0089  1.0000  0.0416  -4.5924   0.0000   0.0000   0.0000   0.2306
  -9.000  -0.9544   0.01834   0.01134  -0.0077  1.0000  0.0436  -4.4160   0.0000   0.0000   0.0000   0.2320
  -8.750  -0.9334   0.01782   0.01074  -0.0066  1.0000  0.0459  -4.2419   0.0000   0.0000   0.0000   0.2333
  -8.500  -0.9153   0.01706   0.01000  -0.0051  1.0000  0.0482  -4.0798   0.0000   0.0000   0.0000   0.2351
  -8.250  -0.8946   0.01658   0.00948  -0.0039  1.0000  0.0512  -3.9079   0.0000   0.0000   0.0000   0.2366
  -8.000  -0.8756   0.01597   0.00889  -0.0024  1.0000  0.0543  -3.7461   0.0000   0.0000   0.0000   0.2385
  -7.750  -0.8545   0.01557   0.00843  -0.0012  1.0000  0.0582  -3.5917   0.0000   0.0000   0.0000   0.2401
  -7.500  -0.8355   0.01500   0.00790   0.0003  1.0000  0.0624  -3.4447   0.0000   0.0000   0.0000   0.2421
  -7.250  -0.8157   0.01449   0.00741   0.0017  1.0000  0.0672  -3.2982   0.0000   0.0000   0.0000   0.2441
  -7.000  -0.7954   0.01405   0.00698   0.0031  1.0000  0.0732  -3.1511   0.0000   0.0000   0.0000   0.2461
  -6.750  -0.7752   0.01361   0.00656   0.0045  1.0000  0.0803  -3.0054   0.0000   0.0000   0.0000   0.2482
  -6.500  -0.7550   0.01319   0.00618   0.0058  1.0000  0.0888  -2.8616   0.0000   0.0000   0.0000   0.2504
  -6.250  -0.7345   0.01280   0.00583   0.0072  1.0000  0.0995  -2.7203   0.0000   0.0000   0.0000   0.2527
  -6.000  -0.7142   0.01239   0.00550   0.0085  1.0000  0.1125  -2.5910   0.0000   0.0000   0.0000   0.2550
  -5.750  -0.6935   0.01201   0.00519   0.0097  1.0000  0.1286  -2.4624   0.0000   0.0000   0.0000   0.2574
  -5.500  -0.6727   0.01163   0.00492   0.0109  1.0000  0.1481  -2.3349   0.0000   0.0000   0.0000   0.2598
  -5.250  -0.6516   0.01129   0.00469   0.0120  1.0000  0.1710  -2.2083   0.0000   0.0000   0.0000   0.2622
  -5.000  -0.6302   0.01095   0.00448   0.0131  1.0000  0.1965  -2.0837   0.0000   0.0000   0.0000   0.2647
  -4.750  -0.6085   0.01065   0.00430   0.0140  1.0000  0.2246  -1.9692   0.0000   0.0000   0.0000   0.2672
  -4.500  -0.5863   0.01037   0.00415   0.0149  1.0000  0.2541  -1.8554   0.0000   0.0000   0.0000   0.2697
  -4.250  -0.5489   0.01004   0.00399   0.0125  0.9972  0.2923  -1.7095   0.0000   0.0000   0.0000   0.2674
  -4.000  -0.5103   0.00972   0.00383   0.0100  0.9938  0.3314  -1.5726   0.0000   0.0000   0.0000   0.2643
  -3.750  -0.4722   0.00942   0.00368   0.0077  0.9898  0.3699  -1.4424   0.0000   0.0000   0.0000   0.2609
  -3.500  -0.4335   0.00914   0.00356   0.0052  0.9861  0.4080  -1.3196   0.0000   0.0000   0.0000   0.2568
  -3.250  -0.3954   0.00887   0.00342   0.0029  0.9816  0.4451  -1.2044   0.0000   0.0000   0.0000   0.2523
  -3.000  -0.3578   0.00860   0.00330   0.0008  0.9768  0.4813  -1.0998   0.0000   0.0000   0.0000   0.2473
  -2.750  -0.3181   0.00834   0.00318  -0.0017  0.9731  0.5172  -0.9986   0.0000   0.0000   0.0000   0.2396
  -2.500  -0.2821   0.00809   0.00306  -0.0033  0.9670  0.5510  -0.9103   0.0000   0.0000   0.0000   0.2331
  -2.250  -0.2473   0.00786   0.00294  -0.0046  0.9601  0.5836  -0.8308   0.0000   0.0000   0.0000   0.2263
  -2.000  -0.2146   0.00764   0.00283  -0.0054  0.9520  0.6148  -0.7603   0.0000   0.0000   0.0000   0.2197
  -1.750  -0.1845   0.00743   0.00273  -0.0056  0.9418  0.6445  -0.6986   0.0000   0.0000   0.0000   0.2148
  -1.500  -0.1562   0.00725   0.00265  -0.0053  0.9297  0.6731  -0.6440   0.0000   0.0000   0.0000   0.2114
  -1.250  -0.1291   0.00708   0.00257  -0.0047  0.9163  0.7007  -0.5957   0.0000   0.0000   0.0000   0.2090
  -1.000  -0.1026   0.00694   0.00251  -0.0039  0.9016  0.7273  -0.5518   0.0000   0.0000   0.0000   0.2073
  -0.750  -0.0770   0.00683   0.00246  -0.0029  0.8840  0.7531  -0.5128   0.0000   0.0000   0.0000   0.2072
  -0.500  -0.0512   0.00675   0.00242  -0.0020  0.8662  0.7780  -0.4768   0.0000   0.0000   0.0000   0.2069
  -0.250  -0.0256   0.00671   0.00240  -0.0010  0.8458  0.8021  -0.4439   0.0000   0.0000   0.0000   0.2064
   0.000  -0.0000   0.00669   0.00240   0.0000  0.8248  0.8248  -0.4135   0.0000   0.0000   0.0000   0.5182
   0.250   0.0256   0.00671   0.00240   0.0010  0.8021  0.8458  -0.4439   0.0000   0.0000   0.0000   0.2064
   0.500   0.0512   0.00675   0.00242   0.0020  0.7780  0.8663  -0.4768   0.0000   0.0000   0.0000   0.2069
   0.750   0.0770   0.00683   0.00246   0.0029  0.7531  0.8840  -0.5128   0.0000   0.0000   0.0000   0.2072
   1.000   0.1026   0.00694   0.00251   0.0039  0.7273  0.9016  -0.5518   0.0000   0.0000   0.0000   0.2073
   1.250   0.1291   0.00708   0.00257   0.0047  0.7006  0.9163  -0.5957   0.0000   0.0000   0.0000   0.2090
   1.500   0.1562   0.00725   0.00265   0.0053  0.6731  0.9297  -0.6440   0.0000   0.0000   0.0000   0.2114
   1.750   0.1845   0.00743   0.00273   0.0056  0.6445  0.9418  -0.6986   0.0000   0.0000   0.0000   0.2148
   2.000   0.2146   0.00764   0.00283   0.0054  0.6148  0.9520  -0.7603   0.0000   0.0000   0.0000   0.2197
   2.250   0.2473   0.00786   0.00294   0.0046  0.5836  0.9601  -0.8308   0.0000   0.0000   0.0000   0.2263
   2.500   0.2820   0.00809   0.00305   0.0034  0.5510  0.9670  -0.9103   0.0000   0.0000   0.0000   0.2331
   2.750   0.3181   0.00834   0.00318   0.0017  0.5171  0.9731  -0.9986   0.0000   0.0000   0.0000   0.2396
   3.000   0.3578   0.00860   0.00330  -0.0008  0.4813  0.9768  -1.0998   0.0000   0.0000   0.0000   0.2473
   3.250   0.3954   0.00887   0.00342  -0.0029  0.4452  0.9816  -1.2044   0.0000   0.0000   0.0000   0.2523
   3.500   0.4335   0.00914   0.00355  -0.0052  0.4081  0.9861  -1.3196   0.0000   0.0000   0.0000   0.2568
   3.750   0.4722   0.00942   0.00368  -0.0077  0.3699  0.9898  -1.4424   0.0000   0.0000   0.0000   0.2609
   4.000   0.5104   0.00972   0.00383  -0.0100  0.3314  0.9938  -1.5726   0.0000   0.0000   0.0000   0.2643
   4.250   0.5489   0.01004   0.00399  -0.0126  0.2923  0.9972  -1.7095   0.0000   0.0000   0.0000   0.2674
   4.500   0.5863   0.01037   0.00415  -0.0149  0.2542  1.0000  -1.8552   0.0000   0.0000   0.0000   0.2697
   4.750   0.6084   0.01065   0.00429  -0.0140  0.2246  1.0000  -1.9690   0.0000   0.0000   0.0000   0.2672
   5.000   0.6301   0.01095   0.00448  -0.0130  0.1966  1.0000  -2.0835   0.0000   0.0000   0.0000   0.2647
   5.250   0.6515   0.01128   0.00469  -0.0120  0.1711  1.0000  -2.2081   0.0000   0.0000   0.0000   0.2622
   5.500   0.6726   0.01163   0.00492  -0.0109  0.1481  1.0000  -2.3347   0.0000   0.0000   0.0000   0.2598
   5.750   0.6934   0.01200   0.00519  -0.0097  0.1286  1.0000  -2.4622   0.0000   0.0000   0.0000   0.2574
   6.000   0.7141   0.01239   0.00550  -0.0085  0.1125  1.0000  -2.5908   0.0000   0.0000   0.0000   0.2550
   6.250   0.7344   0.01279   0.00583  -0.0071  0.0995  1.0000  -2.7201   0.0000   0.0000   0.0000   0.2527
   6.500   0.7549   0.01319   0.00618  -0.0058  0.0889  1.0000  -2.8614   0.0000   0.0000   0.0000   0.2504
   6.750   0.7752   0.01361   0.00656  -0.0045  0.0803  1.0000  -3.0052   0.0000   0.0000   0.0000   0.2482
   7.000   0.7954   0.01405   0.00698  -0.0031  0.0732  1.0000  -3.1509   0.0000   0.0000   0.0000   0.2461
   7.250   0.8156   0.01449   0.00741  -0.0017  0.0672  1.0000  -3.2981   0.0000   0.0000   0.0000   0.2441
   7.500   0.8354   0.01499   0.00790  -0.0003  0.0624  1.0000  -3.4446   0.0000   0.0000   0.0000   0.2421
   8.000   0.8756   0.01597   0.00888   0.0024  0.0543  1.0000  -3.7460   0.0000   0.0000   0.0000   0.2385
   8.250   0.8946   0.01658   0.00948   0.0039  0.0512  1.0000  -3.9079   0.0000   0.0000   0.0000   0.2366
   8.500   0.9153   0.01706   0.01000   0.0051  0.0482  1.0000  -4.0799   0.0000   0.0000   0.0000   0.2351
   8.750   0.9335   0.01782   0.01073   0.0066  0.0459  1.0000  -4.2420   0.0000   0.0000   0.0000   0.2333
   9.000   0.9544   0.01833   0.01133   0.0077  0.0436  1.0000  -4.4161   0.0000   0.0000   0.0000   0.2320
   9.250   0.9740   0.01898   0.01197   0.0089  0.0416  1.0000  -4.5926   0.0000   0.0000   0.0000   0.2307
   9.500   0.9929   0.01974   0.01278   0.0102  0.0397  1.0000  -4.7600   0.0000   0.0000   0.0000   0.2292
   9.750   1.0132   0.02034   0.01345   0.0113  0.0379  1.0000  -4.9392   0.0000   0.0000   0.0000   0.2280
  10.000   1.0318   0.02109   0.01420   0.0125  0.0364  1.0000  -5.1165   0.0000   0.0000   0.0000   0.2267
  10.250   1.0486   0.02213   0.01527   0.0140  0.0352  1.0000  -5.2752   0.0000   0.0000   0.0000   0.2252
  10.500   1.0674   0.02288   0.01614   0.0152  0.0340  1.0000  -5.4455   0.0000   0.0000   0.0000   0.2240
  10.750   1.0855   0.02366   0.01699   0.0165  0.0328  1.0000  -5.6344   0.0000   0.0000   0.0000   0.2227
  11.000   1.1025   0.02451   0.01784   0.0177  0.0317  1.0000  -5.8291   0.0000   0.0000   0.0000   0.2215
  11.250   1.1164   0.02587   0.01924   0.0193  0.0307  1.0000  -5.9976   0.0000   0.0000   0.0000   0.2200
  11.500   1.1322   0.02669   0.02022   0.0208  0.0298  1.0000  -6.1798   0.0000   0.0000   0.0000   0.2186
  11.750   1.1463   0.02764   0.02128   0.0223  0.0289  1.0000  -6.3567   0.0000   0.0000   0.0000   0.2171
  12.000   1.1578   0.02861   0.02234   0.0243  0.0281  1.0000  -6.5254   0.0000   0.0000   0.0000   0.2152
  12.250   1.1683   0.02966   0.02344   0.0262  0.0275  1.0000  -6.6934   0.0000   0.0000   0.0000   0.2134
  12.500   1.1779   0.03095   0.02475   0.0279  0.0269  1.0000  -6.8556   0.0000   0.0000   0.0000   0.2117
  12.750   1.1845   0.03293   0.02682   0.0297  0.0263  1.0000  -6.9801   0.0000   0.0000   0.0000   0.2099
  13.000   1.1897   0.03438   0.02847   0.0315  0.0259  1.0000  -7.1046   0.0000   0.0000   0.0000   0.2081
  13.250   1.1936   0.03610   0.03037   0.0330  0.0255  1.0000  -7.2181   0.0000   0.0000   0.0000   0.2065
  13.500   1.1962   0.03806   0.03250   0.0343  0.0251  1.0000  -7.3229   0.0000   0.0000   0.0000   0.2051
  13.750   1.1977   0.04022   0.03482   0.0352  0.0246  1.0000  -7.4213   0.0000   0.0000   0.0000   0.2039
  14.000   1.1981   0.04257   0.03733   0.0357  0.0243  1.0000  -7.5146   0.0000   0.0000   0.0000   0.2030
  14.250   1.1974   0.04516   0.04005   0.0357  0.0239  1.0000  -7.6015   0.0000   0.0000   0.0000   0.2025
  14.500   1.1965   0.04791   0.04293   0.0354  0.0236  1.0000  -7.6886   0.0000   0.0000   0.0000   0.2022
  14.750   1.1954   0.05083   0.04595   0.0347  0.0232  1.0000  -7.7754   0.0000   0.0000   0.0000   0.2022
  15.000   1.1938   0.05396   0.04916   0.0338  0.0230  1.0000  -7.8570   0.0000   0.0000   0.0000   0.2024
  15.250   1.1898   0.05754   0.05282   0.0327  0.0227  1.0000  -7.9147   0.0000   0.0000   0.0000   0.2028
  15.500   1.1794   0.06214   0.05756   0.0311  0.0224  1.0000  -7.9099   0.0000   0.0000   0.0000   0.2033
  15.750   1.1616   0.06802   0.06363   0.0284  0.0223  1.0000  -7.8321   0.0000   0.0000   0.0000   0.2046
  16.000   1.1443   0.07421   0.07002   0.0247  0.0222  1.0000  -7.7541   0.0000   0.0000   0.0000   0.2069
  16.250   1.1241   0.08119   0.07720   0.0204  0.0222  1.0000  -7.6427   0.0000   0.0000   0.0000   0.2098
  16.500   1.1011   0.08910   0.08531   0.0155  0.0222  1.0000  -7.4941   0.0000   0.0000   0.0000   0.2133
  16.750   1.0747   0.09804   0.09444   0.0099  0.0222  1.0000  -7.2956   0.0000   0.0000   0.0000   0.2177
  17.000   1.0440   0.10834   0.10493   0.0034  0.0222  1.0000  -7.0313   0.0000   0.0000   0.0000   0.2231
  18.000   0.5157   0.17755   0.17500  -0.0190  0.0319  1.0000  -1.4378   0.0000   0.0000   0.0000   0.2732
  18.250   0.5228   0.17946   0.17692  -0.0195  0.0314  1.0000  -1.4992   0.0000   0.0000   0.0000   0.2734
  18.500   0.5339   0.18127   0.17874  -0.0194  0.0310  1.0000  -1.6102   0.0000   0.0000   0.0000   0.2719
  18.750   0.5348   0.18483   0.18229  -0.0209  0.0308  1.0000  -1.5576   0.0000   0.0000   0.0000   0.2745
  19.000   0.5244   0.18955   0.18701  -0.0245  0.0289  1.0000  -1.3115   0.0000   0.0000   0.0000   0.2828
  19.250   0.5286   0.19202   0.18949  -0.0257  0.0279  1.0000  -1.3163   0.0000   0.0000   0.0000   0.2844
  19.500   0.5343   0.19411   0.19159  -0.0266  0.0271  1.0000  -1.3552   0.0000   0.0000   0.0000   0.2852
  19.750   0.5421   0.19594   0.19343  -0.0271  0.0267  1.0000  -1.4321   0.0000   0.0000   0.0000   0.2849
  20.000   0.5544   0.19818   0.19568  -0.0268  0.0264  1.0000  -1.5615   0.0000   0.0000   0.0000   0.2826


