xflr5 v6.61

 Calculated polar for: NACA 0009

 1 1 Reynolds number fixed          Mach number fixed         

 xtrf =   1.000 (top)        1.000 (bottom)
 Mach =   0.000     Re =     0.660 e 6     Ncrit =   9.000

  alpha     CL        CD       CDp       Cm    Top Xtr Bot Xtr   Cpmin    Chinge    XCp    
 ------- -------- --------- --------- -------- ------- ------- -------- --------- ---------
 -10.000  -1.0376   0.02305   0.01777  -0.0100  1.0000  0.0132  -7.6039   0.0000   0.0000   0.0000   0.2312
  -9.750  -1.0165   0.02217   0.01678  -0.0093  1.0000  0.0138  -7.3078   0.0000   0.0000   0.0000   0.2320
  -9.500  -0.9954   0.02120   0.01565  -0.0085  1.0000  0.0143  -7.0315   0.0000   0.0000   0.0000   0.2329
  -9.250  -0.9736   0.02026   0.01456  -0.0077  1.0000  0.0148  -6.7608   0.0000   0.0000   0.0000   0.2338
  -9.000  -0.9531   0.01900   0.01315  -0.0068  1.0000  0.0152  -6.5151   0.0000   0.0000   0.0000   0.2349
  -8.750  -0.9327   0.01782   0.01190  -0.0059  1.0000  0.0159  -6.2507   0.0000   0.0000   0.0000   0.2360
  -8.500  -0.9095   0.01713   0.01117  -0.0053  1.0000  0.0166  -5.9547   0.0000   0.0000   0.0000   0.2368
  -8.250  -0.8860   0.01647   0.01044  -0.0047  1.0000  0.0174  -5.6688   0.0000   0.0000   0.0000   0.2376
  -8.000  -0.8620   0.01587   0.00975  -0.0041  1.0000  0.0182  -5.3876   0.0000   0.0000   0.0000   0.2384
  -7.750  -0.8398   0.01496   0.00877  -0.0033  1.0000  0.0192  -5.1371   0.0000   0.0000   0.0000   0.2394
  -7.500  -0.8155   0.01445   0.00825  -0.0028  1.0000  0.0204  -4.8772   0.0000   0.0000   0.0000   0.2401
  -7.250  -0.7908   0.01399   0.00772  -0.0023  1.0000  0.0217  -4.6314   0.0000   0.0000   0.0000   0.2409
  -7.000  -0.7675   0.01328   0.00697  -0.0016  1.0000  0.0231  -4.4062   0.0000   0.0000   0.0000   0.2420
  -6.750  -0.7431   0.01280   0.00647  -0.0010  1.0000  0.0247  -4.1628   0.0000   0.0000   0.0000   0.2429
  -6.500  -0.7180   0.01245   0.00605  -0.0005  1.0000  0.0264  -3.9241   0.0000   0.0000   0.0000   0.2438
  -6.250  -0.6942   0.01189   0.00551   0.0002  1.0000  0.0290  -3.6945   0.0000   0.0000   0.0000   0.2450
  -6.000  -0.6698   0.01147   0.00506   0.0008  1.0000  0.0318  -3.4670   0.0000   0.0000   0.0000   0.2461
  -5.750  -0.6453   0.01112   0.00470   0.0014  1.0000  0.0352  -3.2403   0.0000   0.0000   0.0000   0.2473
  -5.500  -0.6212   0.01071   0.00431   0.0021  1.0000  0.0395  -3.0325   0.0000   0.0000   0.0000   0.2488
  -5.250  -0.5970   0.01037   0.00397   0.0028  1.0000  0.0454  -2.8392   0.0000   0.0000   0.0000   0.2503
  -5.000  -0.5729   0.01001   0.00365   0.0035  1.0000  0.0534  -2.6497   0.0000   0.0000   0.0000   0.2519
  -4.500  -0.5251   0.00931   0.00310   0.0050  1.0000  0.0824  -2.2802   0.0000   0.0000   0.0000   0.2555
  -4.250  -0.5014   0.00895   0.00287   0.0057  1.0000  0.1078  -2.1012   0.0000   0.0000   0.0000   0.2576
  -4.000  -0.4779   0.00858   0.00265   0.0064  1.0000  0.1414  -1.9408   0.0000   0.0000   0.0000   0.2598
  -3.750  -0.4542   0.00822   0.00247   0.0071  1.0000  0.1830  -1.7867   0.0000   0.0000   0.0000   0.2621
  -3.500  -0.4305   0.00786   0.00232   0.0077  1.0000  0.2302  -1.6358   0.0000   0.0000   0.0000   0.2645
  -3.250  -0.4064   0.00752   0.00219   0.0083  1.0000  0.2813  -1.4883   0.0000   0.0000   0.0000   0.2671
  -3.000  -0.3821   0.00722   0.00209   0.0088  1.0000  0.3334  -1.3573   0.0000   0.0000   0.0000   0.2698
  -2.750  -0.3466   0.00687   0.00198   0.0069  0.9978  0.3943  -1.2026   0.0000   0.0000   0.0000   0.2668
  -2.500  -0.3098   0.00655   0.00188   0.0047  0.9947  0.4546  -1.0597   0.0000   0.0000   0.0000   0.2623
  -2.250  -0.2730   0.00624   0.00179   0.0026  0.9913  0.5123  -0.9271   0.0000   0.0000   0.0000   0.2568
  -2.000  -0.2359   0.00596   0.00171   0.0005  0.9877  0.5678  -0.8079   0.0000   0.0000   0.0000   0.2495
  -1.750  -0.1997   0.00569   0.00163  -0.0013  0.9831  0.6201  -0.7033   0.0000   0.0000   0.0000   0.2408
  -1.500  -0.1651   0.00545   0.00157  -0.0027  0.9771  0.6691  -0.6134   0.0000   0.0000   0.0000   0.2308
  -1.250  -0.1327   0.00523   0.00152  -0.0035  0.9686  0.7139  -0.5372   0.0000   0.0000   0.0000   0.2206
  -1.000  -0.1026   0.00505   0.00149  -0.0037  0.9575  0.7545  -0.4738   0.0000   0.0000   0.0000   0.2107
  -0.750  -0.0748   0.00491   0.00146  -0.0033  0.9434  0.7911  -0.4215   0.0000   0.0000   0.0000   0.2024
  -0.500  -0.0491   0.00480   0.00144  -0.0024  0.9259  0.8246  -0.3786   0.0000   0.0000   0.0000   0.1976
  -0.250  -0.0244   0.00473   0.00143  -0.0013  0.9052  0.8546  -0.3421   0.0000   0.0000   0.0000   0.1950
   0.000  -0.0000   0.00471   0.00143   0.0000  0.8814  0.8814  -0.3107   0.0000   0.0000   0.0000   0.5549
   0.250   0.0244   0.00473   0.00143   0.0013  0.8546  0.9052  -0.3421   0.0000   0.0000   0.0000   0.1950
   0.500   0.0491   0.00480   0.00144   0.0024  0.8246  0.9259  -0.3786   0.0000   0.0000   0.0000   0.1976
   0.750   0.0748   0.00491   0.00146   0.0033  0.7911  0.9434  -0.4215   0.0000   0.0000   0.0000   0.2024
   1.000   0.1026   0.00505   0.00149   0.0037  0.7545  0.9575  -0.4738   0.0000   0.0000   0.0000   0.2107
   1.250   0.1327   0.00523   0.00152   0.0035  0.7139  0.9686  -0.5371   0.0000   0.0000   0.0000   0.2206
   1.500   0.1651   0.00545   0.00157   0.0027  0.6692  0.9771  -0.6134   0.0000   0.0000   0.0000   0.2308
   1.750   0.1997   0.00569   0.00163   0.0013  0.6201  0.9831  -0.7033   0.0000   0.0000   0.0000   0.2408
   2.000   0.2359   0.00596   0.00171  -0.0005  0.5678  0.9877  -0.8079   0.0000   0.0000   0.0000   0.2495
   2.250   0.2730   0.00624   0.00178  -0.0026  0.5123  0.9913  -0.9271   0.0000   0.0000   0.0000   0.2568
   2.500   0.3098   0.00655   0.00188  -0.0047  0.4546  0.9947  -1.0597   0.0000   0.0000   0.0000   0.2623
   2.750   0.3466   0.00687   0.00198  -0.0069  0.3943  0.9978  -1.2027   0.0000   0.0000   0.0000   0.2668
   3.000   0.3820   0.00722   0.00209  -0.0088  0.3335  1.0000  -1.3572   0.0000   0.0000   0.0000   0.2698
   3.250   0.4064   0.00752   0.00219  -0.0083  0.2813  1.0000  -1.4882   0.0000   0.0000   0.0000   0.2671
   3.500   0.4304   0.00786   0.00232  -0.0077  0.2302  1.0000  -1.6357   0.0000   0.0000   0.0000   0.2645
   3.750   0.4542   0.00822   0.00247  -0.0071  0.1830  1.0000  -1.7866   0.0000   0.0000   0.0000   0.2621
   4.000   0.4778   0.00858   0.00265  -0.0064  0.1414  1.0000  -1.9407   0.0000   0.0000   0.0000   0.2598
   4.250   0.5014   0.00895   0.00287  -0.0057  0.1078  1.0000  -2.1011   0.0000   0.0000   0.0000   0.2576
   4.500   0.5251   0.00931   0.00310  -0.0050  0.0824  1.0000  -2.2801   0.0000   0.0000   0.0000   0.2555
   4.750   0.5488   0.00967   0.00336  -0.0043  0.0648  1.0000  -2.4629   0.0000   0.0000   0.0000   0.2536
   5.000   0.5729   0.01001   0.00365  -0.0035  0.0534  1.0000  -2.6496   0.0000   0.0000   0.0000   0.2519
   5.250   0.5970   0.01037   0.00397  -0.0028  0.0454  1.0000  -2.8391   0.0000   0.0000   0.0000   0.2502
   5.500   0.6212   0.01071   0.00430  -0.0021  0.0395  1.0000  -3.0324   0.0000   0.0000   0.0000   0.2487
   5.750   0.6453   0.01112   0.00469  -0.0014  0.0352  1.0000  -3.2402   0.0000   0.0000   0.0000   0.2473
   6.000   0.6698   0.01147   0.00506  -0.0008  0.0318  1.0000  -3.4669   0.0000   0.0000   0.0000   0.2461
   6.250   0.6942   0.01189   0.00551  -0.0002  0.0290  1.0000  -3.6944   0.0000   0.0000   0.0000   0.2450
   6.500   0.7180   0.01245   0.00605   0.0005  0.0264  1.0000  -3.9241   0.0000   0.0000   0.0000   0.2438
   6.750   0.7431   0.01280   0.00647   0.0010  0.0247  1.0000  -4.1627   0.0000   0.0000   0.0000   0.2429
   7.000   0.7675   0.01328   0.00696   0.0016  0.0231  1.0000  -4.4062   0.0000   0.0000   0.0000   0.2420
   7.250   0.7909   0.01399   0.00772   0.0023  0.0217  1.0000  -4.6315   0.0000   0.0000   0.0000   0.2409
   7.500   0.8155   0.01445   0.00825   0.0028  0.0204  1.0000  -4.8772   0.0000   0.0000   0.0000   0.2402
   7.750   0.8398   0.01496   0.00877   0.0033  0.0192  1.0000  -5.1372   0.0000   0.0000   0.0000   0.2394
   8.000   0.8620   0.01587   0.00975   0.0041  0.0182  1.0000  -5.3878   0.0000   0.0000   0.0000   0.2384
   8.250   0.8860   0.01647   0.01044   0.0047  0.0174  1.0000  -5.6690   0.0000   0.0000   0.0000   0.2376
   8.500   0.9095   0.01713   0.01117   0.0053  0.0166  1.0000  -5.9549   0.0000   0.0000   0.0000   0.2368
   8.750   0.9327   0.01782   0.01190   0.0059  0.0159  1.0000  -6.2509   0.0000   0.0000   0.0000   0.2360
   9.000   0.9532   0.01900   0.01315   0.0067  0.0152  1.0000  -6.5153   0.0000   0.0000   0.0000   0.2349
   9.250   0.9737   0.02026   0.01456   0.0077  0.0148  1.0000  -6.7612   0.0000   0.0000   0.0000   0.2339
   9.500   0.9954   0.02120   0.01565   0.0085  0.0143  1.0000  -7.0319   0.0000   0.0000   0.0000   0.2330
   9.750   1.0166   0.02217   0.01678   0.0093  0.0138  1.0000  -7.3083   0.0000   0.0000   0.0000   0.2321
  10.000   1.0377   0.02306   0.01777   0.0100  0.0132  1.0000  -7.6045   0.0000   0.0000   0.0000   0.2312
  10.250   1.0584   0.02388   0.01868   0.0107  0.0127  1.0000  -7.9183   0.0000   0.0000   0.0000   0.2305
  10.500   1.0770   0.02502   0.01989   0.0115  0.0123  1.0000  -8.2112   0.0000   0.0000   0.0000   0.2295
  10.750   1.0856   0.02799   0.02311   0.0133  0.0119  1.0000  -8.3296   0.0000   0.0000   0.0000   0.2277
  11.000   1.0998   0.02957   0.02495   0.0146  0.0117  1.0000  -8.5410   0.0000   0.0000   0.0000   0.2264
  11.250   1.1112   0.03142   0.02706   0.0160  0.0115  1.0000  -8.7217   0.0000   0.0000   0.0000   0.2249
  11.500   1.1177   0.03372   0.02965   0.0178  0.0113  1.0000  -8.8502   0.0000   0.0000   0.0000   0.2231
  11.750   1.1184   0.03641   0.03263   0.0197  0.0112  1.0000  -8.9252   0.0000   0.0000   0.0000   0.2211
  12.000   1.1101   0.03925   0.03573   0.0224  0.0110  1.0000  -8.9378   0.0000   0.0000   0.0000   0.2182
  12.250   1.0957   0.04262   0.03936   0.0242  0.0110  1.0000  -8.8983   0.0000   0.0000   0.0000   0.2159
  12.500   1.0777   0.04711   0.04409   0.0237  0.0109  1.0000  -8.8198   0.0000   0.0000   0.0000   0.2156
  12.750   1.0563   0.05333   0.05056   0.0200  0.0110  1.0000  -8.6712   0.0000   0.0000   0.0000   0.2181
  13.000   1.0314   0.06205   0.05951   0.0128  0.0110  1.0000  -8.4271   0.0000   0.0000   0.0000   0.2242
  13.250   1.0013   0.07366   0.07134   0.0031  0.0112  1.0000  -8.0525   0.0000   0.0000   0.0000   0.2331
  13.500   0.9619   0.08811   0.08596  -0.0072  0.0114  1.0000  -7.5113   0.0000   0.0000   0.0000   0.2435
  13.750   0.8973   0.10804   0.10598  -0.0184  0.0119  1.0000  -6.5219   0.0000   0.0000   0.0000   0.2567


