xflr5 v6.61

 Calculated polar for: NACA 0009

 1 1 Reynolds number fixed          Mach number fixed         

 xtrf =   1.000 (top)        1.000 (bottom)
 Mach =   0.000     Re =     0.680 e 6     Ncrit =   9.000

  alpha     CL        CD       CDp       Cm    Top Xtr Bot Xtr   Cpmin    Chinge    XCp    
 ------- -------- --------- --------- -------- ------- ------- -------- --------- ---------
 -10.000  -1.0400   0.02251   0.01721  -0.0097  1.0000  0.0130  -7.6605   0.0000   0.0000   0.0000   0.2315
  -9.750  -1.0186   0.02171   0.01632  -0.0090  1.0000  0.0136  -7.3520   0.0000   0.0000   0.0000   0.2323
  -9.500  -0.9971   0.02081   0.01529  -0.0083  1.0000  0.0141  -7.0647   0.0000   0.0000   0.0000   0.2332
  -9.250  -0.9754   0.01987   0.01421  -0.0075  1.0000  0.0146  -6.7908   0.0000   0.0000   0.0000   0.2341
  -9.000  -0.9524   0.01913   0.01333  -0.0068  1.0000  0.0150  -6.5057   0.0000   0.0000   0.0000   0.2349
  -8.750  -0.9337   0.01757   0.01166  -0.0057  1.0000  0.0157  -6.2763   0.0000   0.0000   0.0000   0.2362
  -8.500  -0.9108   0.01685   0.01091  -0.0051  1.0000  0.0163  -5.9798   0.0000   0.0000   0.0000   0.2370
  -8.250  -0.8871   0.01622   0.01023  -0.0045  1.0000  0.0171  -5.6882   0.0000   0.0000   0.0000   0.2378
  -8.000  -0.8632   0.01562   0.00954  -0.0039  1.0000  0.0180  -5.4050   0.0000   0.0000   0.0000   0.2386
  -7.750  -0.8402   0.01485   0.00868  -0.0032  1.0000  0.0189  -5.1488   0.0000   0.0000   0.0000   0.2395
  -7.500  -0.8164   0.01425   0.00808  -0.0027  1.0000  0.0201  -4.8933   0.0000   0.0000   0.0000   0.2403
  -7.250  -0.7917   0.01380   0.00757  -0.0022  1.0000  0.0214  -4.6434   0.0000   0.0000   0.0000   0.2411
  -7.000  -0.7677   0.01320   0.00691  -0.0015  1.0000  0.0227  -4.4125   0.0000   0.0000   0.0000   0.2421
  -6.750  -0.7437   0.01266   0.00636  -0.0009  1.0000  0.0244  -4.1722   0.0000   0.0000   0.0000   0.2431
  -6.500  -0.7187   0.01228   0.00594  -0.0004  1.0000  0.0262  -3.9327   0.0000   0.0000   0.0000   0.2440
  -6.250  -0.6947   0.01176   0.00542   0.0003  1.0000  0.0286  -3.7018   0.0000   0.0000   0.0000   0.2451
  -6.000  -0.6700   0.01140   0.00502   0.0009  1.0000  0.0314  -3.4710   0.0000   0.0000   0.0000   0.2462
  -5.750  -0.6457   0.01100   0.00463   0.0015  1.0000  0.0348  -3.2452   0.0000   0.0000   0.0000   0.2475
  -5.500  -0.6216   0.01061   0.00425   0.0022  1.0000  0.0390  -3.0366   0.0000   0.0000   0.0000   0.2489
  -5.250  -0.5974   0.01027   0.00392   0.0029  1.0000  0.0448  -2.8426   0.0000   0.0000   0.0000   0.2504
  -5.000  -0.5732   0.00994   0.00361   0.0036  1.0000  0.0527  -2.6522   0.0000   0.0000   0.0000   0.2520
  -4.750  -0.5492   0.00960   0.00333   0.0043  1.0000  0.0639  -2.4653   0.0000   0.0000   0.0000   0.2538
  -4.500  -0.5254   0.00925   0.00307   0.0051  1.0000  0.0809  -2.2822   0.0000   0.0000   0.0000   0.2557
  -4.250  -0.5017   0.00889   0.00284   0.0058  1.0000  0.1056  -2.1030   0.0000   0.0000   0.0000   0.2577
  -4.000  -0.4781   0.00854   0.00263   0.0065  1.0000  0.1381  -1.9421   0.0000   0.0000   0.0000   0.2599
  -3.750  -0.4545   0.00817   0.00245   0.0072  1.0000  0.1789  -1.7880   0.0000   0.0000   0.0000   0.2623
  -3.500  -0.4307   0.00782   0.00230   0.0078  1.0000  0.2253  -1.6368   0.0000   0.0000   0.0000   0.2647
  -3.250  -0.4066   0.00749   0.00217   0.0083  1.0000  0.2754  -1.4891   0.0000   0.0000   0.0000   0.2673
  -3.000  -0.3803   0.00717   0.00207   0.0084  0.9996  0.3289  -1.3533   0.0000   0.0000   0.0000   0.2690
  -2.750  -0.3435   0.00682   0.00195   0.0062  0.9971  0.3905  -1.1953   0.0000   0.0000   0.0000   0.2651
  -2.500  -0.3068   0.00649   0.00185   0.0041  0.9940  0.4502  -1.0534   0.0000   0.0000   0.0000   0.2604
  -2.250  -0.2703   0.00618   0.00175   0.0021  0.9904  0.5074  -0.9221   0.0000   0.0000   0.0000   0.2549
  -2.000  -0.2329   0.00590   0.00167  -0.0001  0.9873  0.5627  -0.8026   0.0000   0.0000   0.0000   0.2469
  -1.750  -0.1972   0.00564   0.00160  -0.0018  0.9823  0.6148  -0.6995   0.0000   0.0000   0.0000   0.2381
  -1.500  -0.1633   0.00539   0.00153  -0.0030  0.9757  0.6630  -0.6111   0.0000   0.0000   0.0000   0.2286
  -1.250  -0.1314   0.00518   0.00148  -0.0037  0.9668  0.7076  -0.5356   0.0000   0.0000   0.0000   0.2187
  -1.000  -0.1016   0.00501   0.00145  -0.0039  0.9556  0.7484  -0.4727   0.0000   0.0000   0.0000   0.2086
  -0.750  -0.0747   0.00486   0.00142  -0.0033  0.9402  0.7855  -0.4214   0.0000   0.0000   0.0000   0.2025
  -0.500  -0.0492   0.00475   0.00140  -0.0024  0.9225  0.8189  -0.3786   0.0000   0.0000   0.0000   0.1986
  -0.250  -0.0245   0.00469   0.00139  -0.0012  0.9015  0.8496  -0.3422   0.0000   0.0000   0.0000   0.1974
   0.000   0.0000   0.00467   0.00139  -0.0000  0.8771  0.8771  -0.3107   0.0000   0.0000   0.0000   0.5065
   0.250   0.0245   0.00469   0.00139   0.0012  0.8496  0.9015  -0.3422   0.0000   0.0000   0.0000   0.1974
   0.500   0.0492   0.00475   0.00140   0.0024  0.8189  0.9225  -0.3786   0.0000   0.0000   0.0000   0.1986
   0.750   0.0747   0.00486   0.00142   0.0033  0.7855  0.9402  -0.4214   0.0000   0.0000   0.0000   0.2025
   1.000   0.1015   0.00501   0.00145   0.0039  0.7483  0.9556  -0.4727   0.0000   0.0000   0.0000   0.2086
   1.250   0.1314   0.00518   0.00148   0.0037  0.7076  0.9668  -0.5356   0.0000   0.0000   0.0000   0.2187
   1.500   0.1633   0.00539   0.00153   0.0030  0.6630  0.9757  -0.6111   0.0000   0.0000   0.0000   0.2286
   1.750   0.1972   0.00564   0.00160   0.0018  0.6148  0.9823  -0.6995   0.0000   0.0000   0.0000   0.2381
   2.000   0.2329   0.00590   0.00167   0.0001  0.5627  0.9873  -0.8026   0.0000   0.0000   0.0000   0.2469
   2.250   0.2703   0.00618   0.00175  -0.0021  0.5074  0.9904  -0.9221   0.0000   0.0000   0.0000   0.2549
   2.500   0.3068   0.00649   0.00185  -0.0041  0.4502  0.9940  -1.0534   0.0000   0.0000   0.0000   0.2604
   2.750   0.3435   0.00682   0.00195  -0.0062  0.3905  0.9971  -1.1953   0.0000   0.0000   0.0000   0.2651
   3.000   0.3803   0.00717   0.00207  -0.0084  0.3288  0.9996  -1.3533   0.0000   0.0000   0.0000   0.2690
   3.250   0.4066   0.00749   0.00217  -0.0083  0.2755  1.0000  -1.4890   0.0000   0.0000   0.0000   0.2673
   3.500   0.4306   0.00782   0.00230  -0.0078  0.2254  1.0000  -1.6367   0.0000   0.0000   0.0000   0.2647
   3.750   0.4544   0.00817   0.00245  -0.0072  0.1790  1.0000  -1.7878   0.0000   0.0000   0.0000   0.2622
   4.000   0.4781   0.00854   0.00263  -0.0065  0.1381  1.0000  -1.9420   0.0000   0.0000   0.0000   0.2599
   4.250   0.5017   0.00889   0.00284  -0.0058  0.1056  1.0000  -2.1028   0.0000   0.0000   0.0000   0.2577
   4.500   0.5253   0.00925   0.00307  -0.0051  0.0809  1.0000  -2.2820   0.0000   0.0000   0.0000   0.2557
   4.750   0.5491   0.00960   0.00333  -0.0043  0.0639  1.0000  -2.4652   0.0000   0.0000   0.0000   0.2537
   5.000   0.5731   0.00994   0.00361  -0.0036  0.0527  1.0000  -2.6521   0.0000   0.0000   0.0000   0.2520
   5.250   0.5973   0.01027   0.00392  -0.0029  0.0448  1.0000  -2.8425   0.0000   0.0000   0.0000   0.2504
   5.500   0.6216   0.01061   0.00425  -0.0022  0.0390  1.0000  -3.0365   0.0000   0.0000   0.0000   0.2489
   5.750   0.6457   0.01100   0.00463  -0.0015  0.0348  1.0000  -3.2451   0.0000   0.0000   0.0000   0.2475
   6.000   0.6700   0.01140   0.00502  -0.0008  0.0314  1.0000  -3.4709   0.0000   0.0000   0.0000   0.2462
   6.250   0.6947   0.01176   0.00542  -0.0003  0.0286  1.0000  -3.7018   0.0000   0.0000   0.0000   0.2451
   6.500   0.7187   0.01228   0.00594   0.0004  0.0262  1.0000  -3.9326   0.0000   0.0000   0.0000   0.2440
   6.750   0.7437   0.01265   0.00636   0.0009  0.0244  1.0000  -4.1722   0.0000   0.0000   0.0000   0.2431
   7.000   0.7677   0.01320   0.00691   0.0015  0.0227  1.0000  -4.4125   0.0000   0.0000   0.0000   0.2421
   7.250   0.7917   0.01380   0.00757   0.0022  0.0214  1.0000  -4.6434   0.0000   0.0000   0.0000   0.2411
   7.500   0.8164   0.01425   0.00808   0.0027  0.0201  1.0000  -4.8933   0.0000   0.0000   0.0000   0.2403
   7.750   0.8402   0.01485   0.00868   0.0032  0.0189  1.0000  -5.1488   0.0000   0.0000   0.0000   0.2395
   8.000   0.8632   0.01562   0.00954   0.0039  0.0180  1.0000  -5.4052   0.0000   0.0000   0.0000   0.2386
   8.250   0.8872   0.01622   0.01023   0.0045  0.0171  1.0000  -5.6884   0.0000   0.0000   0.0000   0.2378
   8.500   0.9108   0.01685   0.01091   0.0051  0.0163  1.0000  -5.9800   0.0000   0.0000   0.0000   0.2370
   8.750   0.9338   0.01757   0.01166   0.0057  0.0157  1.0000  -6.2765   0.0000   0.0000   0.0000   0.2362
   9.000   0.9525   0.01913   0.01333   0.0068  0.0150  1.0000  -6.5060   0.0000   0.0000   0.0000   0.2349
   9.250   0.9754   0.01987   0.01421   0.0075  0.0146  1.0000  -6.7911   0.0000   0.0000   0.0000   0.2341
   9.500   0.9972   0.02081   0.01529   0.0082  0.0141  1.0000  -7.0651   0.0000   0.0000   0.0000   0.2332
   9.750   1.0187   0.02171   0.01632   0.0090  0.0136  1.0000  -7.3525   0.0000   0.0000   0.0000   0.2323
  10.000   1.0401   0.02251   0.01721   0.0097  0.0130  1.0000  -7.6611   0.0000   0.0000   0.0000   0.2316
  10.250   1.0609   0.02333   0.01809   0.0103  0.0126  1.0000  -7.9806   0.0000   0.0000   0.0000   0.2308
  10.500   1.0772   0.02494   0.01982   0.0114  0.0121  1.0000  -8.2307   0.0000   0.0000   0.0000   0.2296
  10.750   1.0886   0.02736   0.02251   0.0130  0.0118  1.0000  -8.3822   0.0000   0.0000   0.0000   0.2280
  11.000   1.1039   0.02882   0.02420   0.0142  0.0116  1.0000  -8.6088   0.0000   0.0000   0.0000   0.2267
  11.250   1.1156   0.03069   0.02633   0.0157  0.0113  1.0000  -8.7920   0.0000   0.0000   0.0000   0.2253
  11.500   1.1231   0.03291   0.02882   0.0173  0.0111  1.0000  -8.9341   0.0000   0.0000   0.0000   0.2236
  11.750   1.1258   0.03543   0.03161   0.0192  0.0109  1.0000  -9.0338   0.0000   0.0000   0.0000   0.2216
  12.000   1.1210   0.03811   0.03455   0.0217  0.0108  1.0000  -9.0803   0.0000   0.0000   0.0000   0.2190
  12.250   1.1090   0.04113   0.03780   0.0239  0.0107  1.0000  -9.0743   0.0000   0.0000   0.0000   0.2164
  12.500   1.0931   0.04511   0.04202   0.0243  0.0107  1.0000  -9.0285   0.0000   0.0000   0.0000   0.2154
  12.750   1.0729   0.05070   0.04786   0.0217  0.0107  1.0000  -8.9052   0.0000   0.0000   0.0000   0.2169
  13.000   1.0476   0.05888   0.05630   0.0153  0.0107  1.0000  -8.6689   0.0000   0.0000   0.0000   0.2220
  13.250   1.0149   0.07067   0.06833   0.0053  0.0109  1.0000  -8.2649   0.0000   0.0000   0.0000   0.2310
  13.500   0.9705   0.08638   0.08425  -0.0063  0.0112  1.0000  -7.6368   0.0000   0.0000   0.0000   0.2424
  13.750   0.8847   0.11174   0.10975  -0.0205  0.0118  1.0000  -6.2830   0.0000   0.0000   0.0000   0.2595
  17.500   0.5579   0.18410   0.18221  -0.0332  0.0134  1.0000  -1.4674   0.0000   0.0000   0.0000   0.2997
  17.750   0.5616   0.18673   0.18485  -0.0344  0.0129  1.0000  -1.4677   0.0000   0.0000   0.0000   0.3011
  18.000   0.5657   0.18918   0.18731  -0.0355  0.0126  1.0000  -1.4871   0.0000   0.0000   0.0000   0.3024
  18.250   0.5704   0.19146   0.18959  -0.0364  0.0123  1.0000  -1.5295   0.0000   0.0000   0.0000   0.3033
  18.500   0.5760   0.19358   0.19172  -0.0372  0.0121  1.0000  -1.6051   0.0000   0.0000   0.0000   0.3036
  18.750   0.5824   0.19627   0.19441  -0.0375  0.0119  1.0000  -1.6811   0.0000   0.0000   0.0000   0.3030
  19.000   0.5826   0.19976   0.19791  -0.0393  0.0118  1.0000  -1.5617   0.0000   0.0000   0.0000   0.3061
  19.250   0.5815   0.20391   0.20205  -0.0417  0.0115  1.0000  -1.3688   0.0000   0.0000   0.0000   0.3105
  19.500   0.5846   0.20716   0.20531  -0.0431  0.0109  1.0000  -1.3212   0.0000   0.0000   0.0000   0.3124
  19.750   0.5883   0.21001   0.20816  -0.0444  0.0104  1.0000  -1.3197   0.0000   0.0000   0.0000   0.3138
  20.000   0.5922   0.21277   0.21093  -0.0456  0.0101  1.0000  -1.3283   0.0000   0.0000   0.0000   0.3152


