xflr5 v6.61

 Calculated polar for: NACA 0012

 1 1 Reynolds number fixed          Mach number fixed         

 xtrf =   1.000 (top)        1.000 (bottom)
 Mach =   0.000     Re =     0.960 e 6     Ncrit =   9.000

  alpha     CL        CD       CDp       Cm    Top Xtr Bot Xtr   Cpmin    Chinge    XCp    
 ------- -------- --------- --------- -------- ------- ------- -------- --------- ---------
 -10.000  -1.0790   0.01532   0.00941  -0.0054  1.0000  0.0257  -5.4852   0.0000   0.0000   0.0000   0.2339
  -9.750  -1.0568   0.01492   0.00896  -0.0045  1.0000  0.0267  -5.2800   0.0000   0.0000   0.0000   0.2349
  -9.500  -1.0362   0.01437   0.00841  -0.0034  1.0000  0.0282  -5.0860   0.0000   0.0000   0.0000   0.2363
  -9.250  -1.0142   0.01401   0.00803  -0.0024  1.0000  0.0295  -4.8850   0.0000   0.0000   0.0000   0.2375
  -9.000  -0.9919   0.01371   0.00769  -0.0013  1.0000  0.0307  -4.6864   0.0000   0.0000   0.0000   0.2388
  -8.750  -0.9716   0.01324   0.00722  -0.0000  1.0000  0.0325  -4.5015   0.0000   0.0000   0.0000   0.2404
  -8.500  -0.9500   0.01291   0.00688   0.0011  1.0000  0.0343  -4.3106   0.0000   0.0000   0.0000   0.2419
  -8.250  -0.9284   0.01261   0.00656   0.0023  1.0000  0.0362  -4.1237   0.0000   0.0000   0.0000   0.2435
  -8.000  -0.9076   0.01225   0.00622   0.0036  1.0000  0.0388  -3.9423   0.0000   0.0000   0.0000   0.2452
  -7.750  -0.8861   0.01199   0.00593   0.0048  1.0000  0.0411  -3.7694   0.0000   0.0000   0.0000   0.2469
  -7.500  -0.8655   0.01165   0.00562   0.0062  1.0000  0.0443  -3.6084   0.0000   0.0000   0.0000   0.2489
  -7.250  -0.8444   0.01138   0.00534   0.0075  1.0000  0.0475  -3.4480   0.0000   0.0000   0.0000   0.2509
  -7.000  -0.8233   0.01111   0.00509   0.0087  1.0000  0.0514  -3.2895   0.0000   0.0000   0.0000   0.2529
  -6.750  -0.8023   0.01083   0.00484   0.0100  1.0000  0.0562  -3.1340   0.0000   0.0000   0.0000   0.2550
  -6.250  -0.7341   0.01023   0.00431   0.0070  0.9973  0.0711  -2.7511   0.0000   0.0000   0.0000   0.2525
  -6.000  -0.6999   0.00990   0.00404   0.0055  0.9953  0.0818  -2.5791   0.0000   0.0000   0.0000   0.2510
  -5.750  -0.6650   0.00958   0.00380   0.0038  0.9937  0.0949  -2.4093   0.0000   0.0000   0.0000   0.2490
  -5.500  -0.6306   0.00927   0.00357   0.0023  0.9916  0.1100  -2.2446   0.0000   0.0000   0.0000   0.2471
  -5.250  -0.5962   0.00894   0.00334   0.0007  0.9892  0.1289  -2.0838   0.0000   0.0000   0.0000   0.2448
  -5.000  -0.5607   0.00861   0.00312  -0.0011  0.9876  0.1507  -1.9353   0.0000   0.0000   0.0000   0.2418
  -4.750  -0.5268   0.00829   0.00292  -0.0025  0.9846  0.1749  -1.7944   0.0000   0.0000   0.0000   0.2391
  -4.500  -0.4926   0.00797   0.00272  -0.0040  0.9817  0.2016  -1.6561   0.0000   0.0000   0.0000   0.2359
  -4.250  -0.4606   0.00767   0.00254  -0.0050  0.9772  0.2292  -1.5354   0.0000   0.0000   0.0000   0.2333
  -4.000  -0.4288   0.00739   0.00238  -0.0058  0.9725  0.2582  -1.4178   0.0000   0.0000   0.0000   0.2306
  -3.750  -0.4004   0.00713   0.00223  -0.0059  0.9648  0.2861  -1.3140   0.0000   0.0000   0.0000   0.2296
  -3.500  -0.3731   0.00689   0.00209  -0.0057  0.9560  0.3143  -1.2171   0.0000   0.0000   0.0000   0.2292
  -3.250  -0.3464   0.00667   0.00197  -0.0053  0.9459  0.3424  -1.1274   0.0000   0.0000   0.0000   0.2292
  -3.000  -0.3202   0.00648   0.00186  -0.0048  0.9343  0.3704  -1.0427   0.0000   0.0000   0.0000   0.2296
  -2.750  -0.2940   0.00630   0.00176  -0.0043  0.9212  0.3983  -0.9650   0.0000   0.0000   0.0000   0.2301
  -2.500  -0.2678   0.00614   0.00166  -0.0038  0.9068  0.4261  -0.8917   0.0000   0.0000   0.0000   0.2306
  -2.250  -0.2414   0.00600   0.00157  -0.0033  0.8914  0.4538  -0.8234   0.0000   0.0000   0.0000   0.2311
  -2.000  -0.2148   0.00587   0.00149  -0.0029  0.8743  0.4815  -0.7602   0.0000   0.0000   0.0000   0.2315
  -1.750  -0.1882   0.00576   0.00142  -0.0025  0.8557  0.5090  -0.7021   0.0000   0.0000   0.0000   0.2319
  -1.500  -0.1614   0.00567   0.00136  -0.0021  0.8360  0.5362  -0.6487   0.0000   0.0000   0.0000   0.2322
  -1.250  -0.1347   0.00560   0.00131  -0.0017  0.8149  0.5632  -0.6001   0.0000   0.0000   0.0000   0.2325
  -1.000  -0.1077   0.00554   0.00127  -0.0014  0.7925  0.5901  -0.5557   0.0000   0.0000   0.0000   0.2326
  -0.750  -0.0808   0.00550   0.00124  -0.0010  0.7695  0.6168  -0.5154   0.0000   0.0000   0.0000   0.2327
  -0.250  -0.0270   0.00545   0.00120  -0.0003  0.7204  0.6696  -0.4447   0.0000   0.0000   0.0000   0.2329
   0.000  -0.0000   0.00544   0.00119   0.0000  0.6952  0.6952  -0.4136   0.0000   0.0000   0.0000   0.4859
   0.250   0.0270   0.00545   0.00120   0.0003  0.6696  0.7204  -0.4447   0.0000   0.0000   0.0000   0.2329
   0.750   0.0808   0.00550   0.00124   0.0010  0.6168  0.7695  -0.5154   0.0000   0.0000   0.0000   0.2327
   1.000   0.1077   0.00554   0.00127   0.0014  0.5901  0.7925  -0.5557   0.0000   0.0000   0.0000   0.2326
   1.250   0.1347   0.00560   0.00131   0.0017  0.5632  0.8149  -0.6001   0.0000   0.0000   0.0000   0.2325
   1.500   0.1614   0.00567   0.00136   0.0021  0.5362  0.8360  -0.6487   0.0000   0.0000   0.0000   0.2322
   1.750   0.1882   0.00576   0.00142   0.0025  0.5090  0.8557  -0.7021   0.0000   0.0000   0.0000   0.2319
   2.000   0.2148   0.00587   0.00149   0.0029  0.4815  0.8743  -0.7602   0.0000   0.0000   0.0000   0.2315
   2.250   0.2414   0.00600   0.00157   0.0033  0.4539  0.8914  -0.8234   0.0000   0.0000   0.0000   0.2311
   2.500   0.2678   0.00614   0.00166   0.0038  0.4261  0.9068  -0.8917   0.0000   0.0000   0.0000   0.2306
   2.750   0.2941   0.00630   0.00176   0.0043  0.3983  0.9212  -0.9650   0.0000   0.0000   0.0000   0.2301
   3.000   0.3202   0.00648   0.00186   0.0048  0.3704  0.9343  -1.0427   0.0000   0.0000   0.0000   0.2296
   3.250   0.3464   0.00667   0.00197   0.0053  0.3424  0.9459  -1.1274   0.0000   0.0000   0.0000   0.2292
   3.500   0.3731   0.00689   0.00209   0.0057  0.3143  0.9560  -1.2171   0.0000   0.0000   0.0000   0.2292
   3.750   0.4005   0.00713   0.00223   0.0059  0.2861  0.9648  -1.3140   0.0000   0.0000   0.0000   0.2296
   4.000   0.4288   0.00739   0.00238   0.0058  0.2582  0.9725  -1.4178   0.0000   0.0000   0.0000   0.2306
   4.250   0.4606   0.00767   0.00254   0.0050  0.2292  0.9772  -1.5354   0.0000   0.0000   0.0000   0.2334
   4.500   0.4926   0.00797   0.00272   0.0040  0.2016  0.9817  -1.6561   0.0000   0.0000   0.0000   0.2359
   4.750   0.5268   0.00829   0.00292   0.0025  0.1749  0.9847  -1.7944   0.0000   0.0000   0.0000   0.2391
   5.000   0.5607   0.00861   0.00312   0.0011  0.1507  0.9876  -1.9354   0.0000   0.0000   0.0000   0.2418
   5.250   0.5963   0.00894   0.00334  -0.0007  0.1288  0.9892  -2.0838   0.0000   0.0000   0.0000   0.2448
   5.500   0.6306   0.00927   0.00357  -0.0023  0.1100  0.9916  -2.2447   0.0000   0.0000   0.0000   0.2471
   5.750   0.6650   0.00958   0.00380  -0.0038  0.0949  0.9937  -2.4094   0.0000   0.0000   0.0000   0.2490
   6.000   0.7000   0.00990   0.00404  -0.0055  0.0818  0.9954  -2.5792   0.0000   0.0000   0.0000   0.2510
   6.250   0.7342   0.01023   0.00431  -0.0070  0.0711  0.9973  -2.7512   0.0000   0.0000   0.0000   0.2525
   6.500   0.7690   0.01052   0.00456  -0.0087  0.0630  0.9987  -2.9429   0.0000   0.0000   0.0000   0.2540
   6.750   0.8022   0.01083   0.00483  -0.0100  0.0562  1.0000  -3.1337   0.0000   0.0000   0.0000   0.2550
   7.000   0.8232   0.01111   0.00509  -0.0087  0.0514  1.0000  -3.2892   0.0000   0.0000   0.0000   0.2529
   7.250   0.8443   0.01137   0.00534  -0.0074  0.0475  1.0000  -3.4478   0.0000   0.0000   0.0000   0.2508
   7.500   0.8654   0.01165   0.00562  -0.0062  0.0443  1.0000  -3.6081   0.0000   0.0000   0.0000   0.2489
   7.750   0.8860   0.01199   0.00593  -0.0048  0.0412  1.0000  -3.7692   0.0000   0.0000   0.0000   0.2469
   8.000   0.9075   0.01225   0.00622  -0.0036  0.0388  1.0000  -3.9421   0.0000   0.0000   0.0000   0.2452
   8.250   0.9283   0.01261   0.00655  -0.0023  0.0362  1.0000  -4.1235   0.0000   0.0000   0.0000   0.2434
   8.500   0.9499   0.01291   0.00688  -0.0011  0.0343  1.0000  -4.3104   0.0000   0.0000   0.0000   0.2419
   8.750   0.9716   0.01323   0.00722   0.0000  0.0325  1.0000  -4.5014   0.0000   0.0000   0.0000   0.2404
   9.000   0.9919   0.01371   0.00769   0.0013  0.0307  1.0000  -4.6863   0.0000   0.0000   0.0000   0.2388
   9.250   1.0142   0.01401   0.00803   0.0024  0.0295  1.0000  -4.8849   0.0000   0.0000   0.0000   0.2375
   9.500   1.0362   0.01437   0.00841   0.0033  0.0282  1.0000  -5.0860   0.0000   0.0000   0.0000   0.2363
   9.750   1.0568   0.01492   0.00896   0.0045  0.0267  1.0000  -5.2801   0.0000   0.0000   0.0000   0.2349
  10.000   1.0790   0.01532   0.00941   0.0054  0.0257  1.0000  -5.4854   0.0000   0.0000   0.0000   0.2339
  10.250   1.1017   0.01569   0.00981   0.0062  0.0247  1.0000  -5.6982   0.0000   0.0000   0.0000   0.2329
  10.500   1.1239   0.01612   0.01027   0.0070  0.0238  1.0000  -5.9116   0.0000   0.0000   0.0000   0.2320
  10.750   1.1440   0.01676   0.01092   0.0081  0.0227  1.0000  -6.1272   0.0000   0.0000   0.0000   0.2308
  11.000   1.1639   0.01739   0.01161   0.0092  0.0220  1.0000  -6.3457   0.0000   0.0000   0.0000   0.2296
  11.250   1.1856   0.01785   0.01212   0.0101  0.0214  1.0000  -6.5812   0.0000   0.0000   0.0000   0.2287
  11.500   1.2066   0.01836   0.01268   0.0110  0.0207  1.0000  -6.8160   0.0000   0.0000   0.0000   0.2277
  11.750   1.2270   0.01890   0.01326   0.0119  0.0201  1.0000  -7.0522   0.0000   0.0000   0.0000   0.2267
  12.000   1.2461   0.01952   0.01392   0.0130  0.0195  1.0000  -7.2845   0.0000   0.0000   0.0000   0.2257
  12.250   1.2613   0.02042   0.01487   0.0146  0.0189  1.0000  -7.4911   0.0000   0.0000   0.0000   0.2242
  12.500   1.2749   0.02139   0.01591   0.0163  0.0183  1.0000  -7.6875   0.0000   0.0000   0.0000   0.2225
  12.750   1.2932   0.02195   0.01655   0.0175  0.0180  1.0000  -7.9234   0.0000   0.0000   0.0000   0.2214
  13.000   1.3089   0.02259   0.01725   0.0190  0.0176  1.0000  -8.1469   0.0000   0.0000   0.0000   0.2200
  13.250   1.3219   0.02329   0.01802   0.0209  0.0171  1.0000  -8.3576   0.0000   0.0000   0.0000   0.2184
  13.500   1.3337   0.02409   0.01888   0.0227  0.0168  1.0000  -8.5629   0.0000   0.0000   0.0000   0.2167
  13.750   1.3445   0.02499   0.01985   0.0245  0.0164  1.0000  -8.7632   0.0000   0.0000   0.0000   0.2151
  14.000   1.3540   0.02604   0.02096   0.0261  0.0161  1.0000  -8.9566   0.0000   0.0000   0.0000   0.2135
  14.250   1.3609   0.02734   0.02232   0.0277  0.0158  1.0000  -9.1314   0.0000   0.0000   0.0000   0.2120
  14.500   1.3633   0.02907   0.02414   0.0293  0.0155  1.0000  -9.2725   0.0000   0.0000   0.0000   0.2104
  14.750   1.3590   0.03156   0.02674   0.0306  0.0152  1.0000  -9.3579   0.0000   0.0000   0.0000   0.2089
  15.000   1.3568   0.03414   0.02945   0.0312  0.0150  1.0000  -9.4545   0.0000   0.0000   0.0000   0.2079
  15.250   1.3619   0.03621   0.03162   0.0312  0.0149  1.0000  -9.6094   0.0000   0.0000   0.0000   0.2075
  15.500   1.3650   0.03864   0.03417   0.0309  0.0147  1.0000  -9.7472   0.0000   0.0000   0.0000   0.2072
  15.750   1.3660   0.04149   0.03713   0.0301  0.0146  1.0000  -9.8655   0.0000   0.0000   0.0000   0.2072
  16.000   1.3647   0.04480   0.04056   0.0290  0.0144  1.0000  -9.9661   0.0000   0.0000   0.0000   0.2074
  16.250   1.3608   0.04859   0.04448   0.0274  0.0143  1.0000  -10.0507   0.0000   0.0000   0.0000   0.2079
  16.500   1.3545   0.05291   0.04891   0.0255  0.0142  1.0000  -10.1099   0.0000   0.0000   0.0000   0.2087
  16.750   1.3452   0.05775   0.05389   0.0231  0.0141  1.0000  -10.1391   0.0000   0.0000   0.0000   0.2097
  17.000   1.3331   0.06315   0.05941   0.0204  0.0140  1.0000  -10.1375   0.0000   0.0000   0.0000   0.2109
  17.250   1.3181   0.06907   0.06546   0.0175  0.0139  1.0000  -10.1033   0.0000   0.0000   0.0000   0.2124
  17.500   1.3006   0.07549   0.07201   0.0142  0.0138  1.0000  -10.0392   0.0000   0.0000   0.0000   0.2141
  17.750   1.2814   0.08237   0.07902   0.0107  0.0138  1.0000  -9.9489   0.0000   0.0000   0.0000   0.2161
  18.000   1.2606   0.08961   0.08639   0.0070  0.0138  1.0000  -9.8341   0.0000   0.0000   0.0000   0.2183
  18.250   1.2392   0.09713   0.09403   0.0032  0.0137  1.0000  -9.7030   0.0000   0.0000   0.0000   0.2208
  18.500   1.2176   0.10481   0.10183  -0.0008  0.0137  1.0000  -9.5579   0.0000   0.0000   0.0000   0.2235
  18.750   1.1962   0.11262   0.10976  -0.0049  0.0136  1.0000  -9.4022   0.0000   0.0000   0.0000   0.2263
  19.000   1.1752   0.12055   0.11780  -0.0091  0.0136  1.0000  -9.2367   0.0000   0.0000   0.0000   0.2295
  19.250   1.1544   0.12856   0.12591  -0.0134  0.0136  1.0000  -9.0586   0.0000   0.0000   0.0000   0.2329
  19.500   1.1343   0.13670   0.13416  -0.0179  0.0135  1.0000  -8.8688   0.0000   0.0000   0.0000   0.2366
  19.750   1.1144   0.14506   0.14263  -0.0226  0.0134  1.0000  -8.6602   0.0000   0.0000   0.0000   0.2407
  20.000   1.0928   0.15397   0.15165  -0.0277  0.0134  1.0000  -8.4051   0.0000   0.0000   0.0000   0.2454


