xflr5 v6.61

 Calculated polar for: NACA 0009

 1 1 Reynolds number fixed          Mach number fixed         

 xtrf =   1.000 (top)        1.000 (bottom)
 Mach =   0.000     Re =     1.000 e 6     Ncrit =   9.000

  alpha     CL        CD       CDp       Cm    Top Xtr Bot Xtr   Cpmin    Chinge    XCp    
 ------- -------- --------- --------- -------- ------- ------- -------- --------- ---------
 -10.000  -1.0612   0.01844   0.01329  -0.0067  1.0000  0.0109  -8.0899   0.0000   0.0000   0.0000   0.2344
  -9.750  -1.0382   0.01780   0.01256  -0.0062  1.0000  0.0113  -7.7590   0.0000   0.0000   0.0000   0.2351
  -9.500  -1.0144   0.01728   0.01196  -0.0057  1.0000  0.0117  -7.4220   0.0000   0.0000   0.0000   0.2358
  -9.250  -0.9921   0.01647   0.01105  -0.0050  1.0000  0.0121  -7.1190   0.0000   0.0000   0.0000   0.2367
  -9.000  -0.9710   0.01545   0.00996  -0.0041  1.0000  0.0127  -6.8339   0.0000   0.0000   0.0000   0.2377
  -8.750  -0.9470   0.01491   0.00938  -0.0037  1.0000  0.0133  -6.5098   0.0000   0.0000   0.0000   0.2384
  -8.500  -0.9225   0.01441   0.00882  -0.0032  1.0000  0.0139  -6.1919   0.0000   0.0000   0.0000   0.2391
  -8.250  -0.8978   0.01394   0.00829  -0.0028  1.0000  0.0145  -5.8811   0.0000   0.0000   0.0000   0.2397
  -8.000  -0.8725   0.01356   0.00786  -0.0024  1.0000  0.0150  -5.5694   0.0000   0.0000   0.0000   0.2404
  -7.750  -0.8497   0.01275   0.00699  -0.0016  1.0000  0.0161  -5.3123   0.0000   0.0000   0.0000   0.2414
  -7.500  -0.8245   0.01236   0.00659  -0.0012  1.0000  0.0170  -5.0392   0.0000   0.0000   0.0000   0.2421
  -7.250  -0.7990   0.01204   0.00623  -0.0009  1.0000  0.0181  -4.7700   0.0000   0.0000   0.0000   0.2428
  -7.000  -0.7746   0.01153   0.00568  -0.0003  1.0000  0.0195  -4.5210   0.0000   0.0000   0.0000   0.2437
  -6.750  -0.7494   0.01118   0.00532   0.0002  1.0000  0.0209  -4.2633   0.0000   0.0000   0.0000   0.2445
  -6.500  -0.7240   0.01090   0.00501   0.0006  1.0000  0.0222  -4.0110   0.0000   0.0000   0.0000   0.2454
  -6.250  -0.6997   0.01046   0.00456   0.0013  1.0000  0.0245  -3.7732   0.0000   0.0000   0.0000   0.2465
  -6.000  -0.6746   0.01021   0.00429   0.0018  1.0000  0.0265  -3.5313   0.0000   0.0000   0.0000   0.2476
  -5.750  -0.6503   0.00986   0.00396   0.0025  1.0000  0.0298  -3.2990   0.0000   0.0000   0.0000   0.2489
  -5.500  -0.6258   0.00956   0.00367   0.0031  1.0000  0.0335  -3.0802   0.0000   0.0000   0.0000   0.2504
  -5.250  -0.6014   0.00929   0.00341   0.0038  1.0000  0.0381  -2.8807   0.0000   0.0000   0.0000   0.2519
  -5.000  -0.5772   0.00902   0.00316   0.0045  1.0000  0.0444  -2.6849   0.0000   0.0000   0.0000   0.2536
  -4.750  -0.5531   0.00876   0.00295   0.0053  1.0000  0.0531  -2.4936   0.0000   0.0000   0.0000   0.2554
  -4.500  -0.5292   0.00850   0.00275   0.0060  1.0000  0.0651  -2.3070   0.0000   0.0000   0.0000   0.2575
  -4.250  -0.5055   0.00822   0.00256   0.0068  1.0000  0.0817  -2.1253   0.0000   0.0000   0.0000   0.2597
  -4.000  -0.4818   0.00794   0.00239   0.0075  1.0000  0.1047  -1.9598   0.0000   0.0000   0.0000   0.2620
  -3.750  -0.4506   0.00762   0.00221   0.0066  0.9988  0.1372  -1.7818   0.0000   0.0000   0.0000   0.2612
  -3.500  -0.4156   0.00724   0.00203   0.0048  0.9970  0.1817  -1.5976   0.0000   0.0000   0.0000   0.2582
  -3.250  -0.3807   0.00687   0.00186   0.0031  0.9946  0.2314  -1.4264   0.0000   0.0000   0.0000   0.2547
  -3.000  -0.3454   0.00651   0.00171   0.0012  0.9924  0.2851  -1.2697   0.0000   0.0000   0.0000   0.2503
  -2.750  -0.3107   0.00617   0.00159  -0.0005  0.9892  0.3391  -1.1222   0.0000   0.0000   0.0000   0.2454
  -2.500  -0.2755   0.00586   0.00147  -0.0022  0.9862  0.3925  -0.9891   0.0000   0.0000   0.0000   0.2388
  -2.250  -0.2423   0.00558   0.00137  -0.0035  0.9809  0.4435  -0.8709   0.0000   0.0000   0.0000   0.2327
  -2.000  -0.2110   0.00533   0.00129  -0.0042  0.9733  0.4920  -0.7667   0.0000   0.0000   0.0000   0.2270
  -1.750  -0.1816   0.00511   0.00122  -0.0045  0.9631  0.5383  -0.6763   0.0000   0.0000   0.0000   0.2224
  -1.500  -0.1544   0.00491   0.00116  -0.0042  0.9495  0.5823  -0.5990   0.0000   0.0000   0.0000   0.2200
  -1.250  -0.1284   0.00474   0.00111  -0.0036  0.9337  0.6245  -0.5316   0.0000   0.0000   0.0000   0.2191
  -1.000  -0.1029   0.00460   0.00107  -0.0028  0.9146  0.6650  -0.4737   0.0000   0.0000   0.0000   0.2195
  -0.750  -0.0773   0.00449   0.00103  -0.0021  0.8927  0.7041  -0.4234   0.0000   0.0000   0.0000   0.2199
  -0.500  -0.0517   0.00440   0.00100  -0.0014  0.8680  0.7417  -0.3802   0.0000   0.0000   0.0000   0.2204
   0.000   0.0000   0.00434   0.00098  -0.0000  0.8101  0.8101  -0.3105   0.0000   0.0000   0.0000   0.5549
   0.500   0.0517   0.00440   0.00100   0.0014  0.7417  0.8680  -0.3802   0.0000   0.0000   0.0000   0.2204
   0.750   0.0773   0.00449   0.00103   0.0021  0.7041  0.8928  -0.4234   0.0000   0.0000   0.0000   0.2199
   1.000   0.1029   0.00460   0.00107   0.0028  0.6650  0.9146  -0.4737   0.0000   0.0000   0.0000   0.2195
   1.250   0.1284   0.00474   0.00111   0.0036  0.6245  0.9337  -0.5316   0.0000   0.0000   0.0000   0.2191
   1.500   0.1544   0.00491   0.00116   0.0042  0.5823  0.9495  -0.5990   0.0000   0.0000   0.0000   0.2200
   1.750   0.1816   0.00511   0.00122   0.0045  0.5383  0.9631  -0.6763   0.0000   0.0000   0.0000   0.2224
   2.000   0.2110   0.00533   0.00129   0.0042  0.4920  0.9733  -0.7667   0.0000   0.0000   0.0000   0.2270
   2.250   0.2423   0.00558   0.00137   0.0035  0.4434  0.9809  -0.8709   0.0000   0.0000   0.0000   0.2327
   2.500   0.2755   0.00586   0.00147   0.0022  0.3925  0.9862  -0.9891   0.0000   0.0000   0.0000   0.2388
   2.750   0.3107   0.00617   0.00159   0.0005  0.3391  0.9892  -1.1222   0.0000   0.0000   0.0000   0.2454
   3.000   0.3454   0.00651   0.00171  -0.0012  0.2851  0.9924  -1.2697   0.0000   0.0000   0.0000   0.2503
   3.250   0.3807   0.00687   0.00186  -0.0031  0.2314  0.9946  -1.4264   0.0000   0.0000   0.0000   0.2547
   3.500   0.4156   0.00724   0.00203  -0.0048  0.1818  0.9970  -1.5977   0.0000   0.0000   0.0000   0.2582
   3.750   0.4506   0.00762   0.00221  -0.0066  0.1372  0.9989  -1.7818   0.0000   0.0000   0.0000   0.2612
   4.000   0.4818   0.00794   0.00239  -0.0075  0.1047  1.0000  -1.9597   0.0000   0.0000   0.0000   0.2620
   4.250   0.5055   0.00822   0.00256  -0.0068  0.0818  1.0000  -2.1251   0.0000   0.0000   0.0000   0.2596
   4.500   0.5292   0.00850   0.00275  -0.0060  0.0651  1.0000  -2.3068   0.0000   0.0000   0.0000   0.2574
   4.750   0.5531   0.00876   0.00295  -0.0053  0.0531  1.0000  -2.4934   0.0000   0.0000   0.0000   0.2554
   5.000   0.5771   0.00902   0.00316  -0.0045  0.0444  1.0000  -2.6848   0.0000   0.0000   0.0000   0.2536
   5.250   0.6014   0.00928   0.00341  -0.0038  0.0381  1.0000  -2.8806   0.0000   0.0000   0.0000   0.2519
   5.500   0.6258   0.00956   0.00367  -0.0031  0.0335  1.0000  -3.0801   0.0000   0.0000   0.0000   0.2503
   5.750   0.6502   0.00986   0.00396  -0.0025  0.0298  1.0000  -3.2988   0.0000   0.0000   0.0000   0.2489
   6.000   0.6746   0.01021   0.00429  -0.0018  0.0265  1.0000  -3.5312   0.0000   0.0000   0.0000   0.2476
   6.250   0.6996   0.01046   0.00456  -0.0012  0.0245  1.0000  -3.7730   0.0000   0.0000   0.0000   0.2465
   6.500   0.7240   0.01090   0.00501  -0.0006  0.0222  1.0000  -4.0109   0.0000   0.0000   0.0000   0.2454
   6.750   0.7494   0.01118   0.00532  -0.0002  0.0209  1.0000  -4.2632   0.0000   0.0000   0.0000   0.2445
   7.000   0.7746   0.01153   0.00568   0.0003  0.0195  1.0000  -4.5210   0.0000   0.0000   0.0000   0.2437
   7.250   0.7990   0.01204   0.00623   0.0009  0.0181  1.0000  -4.7700   0.0000   0.0000   0.0000   0.2428
   7.500   0.8246   0.01236   0.00659   0.0012  0.0170  1.0000  -5.0392   0.0000   0.0000   0.0000   0.2421
   7.750   0.8497   0.01275   0.00699   0.0016  0.0161  1.0000  -5.3124   0.0000   0.0000   0.0000   0.2414
   8.000   0.8725   0.01356   0.00786   0.0024  0.0150  1.0000  -5.5695   0.0000   0.0000   0.0000   0.2404
   8.250   0.8978   0.01394   0.00829   0.0028  0.0145  1.0000  -5.8812   0.0000   0.0000   0.0000   0.2397
   8.500   0.9225   0.01441   0.00882   0.0032  0.0139  1.0000  -6.1921   0.0000   0.0000   0.0000   0.2391
   8.750   0.9470   0.01491   0.00937   0.0037  0.0133  1.0000  -6.5100   0.0000   0.0000   0.0000   0.2384
   9.000   0.9711   0.01545   0.00996   0.0041  0.0127  1.0000  -6.8342   0.0000   0.0000   0.0000   0.2377
   9.250   0.9921   0.01647   0.01105   0.0050  0.0121  1.0000  -7.1192   0.0000   0.0000   0.0000   0.2367
   9.500   1.0144   0.01728   0.01196   0.0057  0.0117  1.0000  -7.4223   0.0000   0.0000   0.0000   0.2358
   9.750   1.0383   0.01780   0.01256   0.0062  0.0113  1.0000  -7.7594   0.0000   0.0000   0.0000   0.2351
  10.000   1.0613   0.01844   0.01329   0.0067  0.0109  1.0000  -8.0904   0.0000   0.0000   0.0000   0.2344
  10.250   1.0836   0.01915   0.01409   0.0074  0.0105  1.0000  -8.4204   0.0000   0.0000   0.0000   0.2336
  10.500   1.1056   0.01986   0.01487   0.0080  0.0102  1.0000  -8.7588   0.0000   0.0000   0.0000   0.2329
  10.750   1.1269   0.02063   0.01571   0.0087  0.0099  1.0000  -9.0994   0.0000   0.0000   0.0000   0.2321
  11.000   1.1458   0.02170   0.01687   0.0096  0.0096  1.0000  -9.4110   0.0000   0.0000   0.0000   0.2311
  11.250   1.1538   0.02432   0.01974   0.0116  0.0091  1.0000  -9.5447   0.0000   0.0000   0.0000   0.2291
  11.500   1.1726   0.02524   0.02080   0.0125  0.0090  1.0000  -9.8607   0.0000   0.0000   0.0000   0.2281
  11.750   1.1893   0.02637   0.02207   0.0136  0.0089  1.0000  -10.1542   0.0000   0.0000   0.0000   0.2270
  12.000   1.2036   0.02770   0.02356   0.0148  0.0087  1.0000  -10.4240   0.0000   0.0000   0.0000   0.2258
  12.250   1.2153   0.02921   0.02523   0.0162  0.0086  1.0000  -10.6695   0.0000   0.0000   0.0000   0.2244
  12.500   1.2241   0.03087   0.02707   0.0178  0.0084  1.0000  -10.8891   0.0000   0.0000   0.0000   0.2228
  12.750   1.2279   0.03265   0.02901   0.0199  0.0083  1.0000  -11.0949   0.0000   0.0000   0.0000   0.2208
  13.000   1.2258   0.03460   0.03113   0.0224  0.0082  1.0000  -11.2522   0.0000   0.0000   0.0000   0.2184
  13.250   1.2214   0.03699   0.03368   0.0239  0.0081  1.0000  -11.3775   0.0000   0.0000   0.0000   0.2166
  13.500   1.2142   0.04006   0.03693   0.0243  0.0081  1.0000  -11.4610   0.0000   0.0000   0.0000   0.2157
  13.750   1.2043   0.04411   0.04116   0.0229  0.0080  1.0000  -11.4927   0.0000   0.0000   0.0000   0.2162
  14.000   1.1908   0.04961   0.04686   0.0195  0.0080  1.0000  -11.4515   0.0000   0.0000   0.0000   0.2183
  14.250   1.1719   0.05716   0.05461   0.0137  0.0080  1.0000  -11.2987   0.0000   0.0000   0.0000   0.2225
  14.500   1.1443   0.06738   0.06504   0.0058  0.0080  1.0000  -10.9759   0.0000   0.0000   0.0000   0.2286
  14.750   1.1012   0.08117   0.07905  -0.0036  0.0082  1.0000  -10.3719   0.0000   0.0000   0.0000   0.2366
  15.000   1.0403   0.09877   0.09685  -0.0139  0.0084  1.0000  -9.4271   0.0000   0.0000   0.0000   0.2466
  19.250   0.5852   0.20245   0.20092  -0.0416  0.0090  1.0000  -1.5386   0.0000   0.0000   0.0000   0.3095
  19.500   0.5864   0.20657   0.20505  -0.0434  0.0085  1.0000  -1.3828   0.0000   0.0000   0.0000   0.3126
  19.750   0.5900   0.20957   0.20804  -0.0447  0.0081  1.0000  -1.3688   0.0000   0.0000   0.0000   0.3141
  20.000   0.5939   0.21234   0.21083  -0.0460  0.0077  1.0000  -1.3777   0.0000   0.0000   0.0000   0.3155


