xflr5 v6.61

 Calculated polar for: NACA 0009

 1 1 Reynolds number fixed          Mach number fixed         

 xtrf =   1.000 (top)        1.000 (bottom)
 Mach =   0.000     Re =     0.280 e 6     Ncrit =   9.000

  alpha     CL        CD       CDp       Cm    Top Xtr Bot Xtr   Cpmin    Chinge    XCp    
 ------- -------- --------- --------- -------- ------- ------- -------- --------- ---------
 -10.000  -0.9129   0.05139   0.04747  -0.0201  1.0000  0.0272  -5.1028   0.0000   0.0000   0.0000   0.2197
  -9.750  -0.9280   0.04487   0.04041  -0.0182  1.0000  0.0255  -5.3514   0.0000   0.0000   0.0000   0.2223
  -9.500  -0.9296   0.04014   0.03524  -0.0163  1.0000  0.0252  -5.4201   0.0000   0.0000   0.0000   0.2245
  -9.250  -0.9258   0.03578   0.03037  -0.0144  1.0000  0.0251  -5.4603   0.0000   0.0000   0.0000   0.2266
  -9.000  -0.9161   0.03214   0.02622  -0.0126  1.0000  0.0253  -5.4445   0.0000   0.0000   0.0000   0.2286
  -8.750  -0.9018   0.02922   0.02278  -0.0110  1.0000  0.0258  -5.3774   0.0000   0.0000   0.0000   0.2303
  -8.500  -0.8844   0.02684   0.02001  -0.0098  1.0000  0.0269  -5.2423   0.0000   0.0000   0.0000   0.2317
  -8.250  -0.8625   0.02564   0.01882  -0.0093  1.0000  0.0281  -4.9839   0.0000   0.0000   0.0000   0.2323
  -8.000  -0.8408   0.02411   0.01705  -0.0084  1.0000  0.0294  -4.7904   0.0000   0.0000   0.0000   0.2333
  -7.750  -0.8185   0.02256   0.01517  -0.0074  1.0000  0.0305  -4.6168   0.0000   0.0000   0.0000   0.2345
  -7.500  -0.7960   0.02092   0.01346  -0.0066  1.0000  0.0318  -4.4354   0.0000   0.0000   0.0000   0.2354
  -7.250  -0.7727   0.01992   0.01241  -0.0060  1.0000  0.0336  -4.2341   0.0000   0.0000   0.0000   0.2362
  -7.000  -0.7490   0.01897   0.01127  -0.0052  1.0000  0.0360  -4.0498   0.0000   0.0000   0.0000   0.2372
  -6.750  -0.7260   0.01798   0.01035  -0.0045  1.0000  0.0384  -3.8433   0.0000   0.0000   0.0000   0.2381
  -6.500  -0.7025   0.01709   0.00934  -0.0037  1.0000  0.0410  -3.6606   0.0000   0.0000   0.0000   0.2393
  -6.250  -0.6798   0.01621   0.00852  -0.0029  1.0000  0.0443  -3.4602   0.0000   0.0000   0.0000   0.2405
  -6.000  -0.6568   0.01544   0.00773  -0.0021  1.0000  0.0486  -3.2630   0.0000   0.0000   0.0000   0.2418
  -5.750  -0.6337   0.01470   0.00699  -0.0012  1.0000  0.0536  -3.0706   0.0000   0.0000   0.0000   0.2432
  -5.500  -0.6106   0.01402   0.00634  -0.0004  1.0000  0.0601  -2.8940   0.0000   0.0000   0.0000   0.2447
  -5.250  -0.5874   0.01341   0.00576   0.0004  1.0000  0.0692  -2.7231   0.0000   0.0000   0.0000   0.2462
  -5.000  -0.5644   0.01276   0.00517   0.0013  1.0000  0.0821  -2.5556   0.0000   0.0000   0.0000   0.2479
  -4.750  -0.5416   0.01212   0.00465   0.0021  1.0000  0.1035  -2.3883   0.0000   0.0000   0.0000   0.2497
  -4.500  -0.5191   0.01143   0.00419   0.0029  1.0000  0.1421  -2.2218   0.0000   0.0000   0.0000   0.2516
  -4.250  -0.4968   0.01076   0.00382   0.0037  1.0000  0.2020  -2.0575   0.0000   0.0000   0.0000   0.2536
  -4.000  -0.4742   0.01017   0.00353   0.0044  1.0000  0.2704  -1.9074   0.0000   0.0000   0.0000   0.2557
  -3.750  -0.4514   0.00966   0.00331   0.0052  1.0000  0.3380  -1.7584   0.0000   0.0000   0.0000   0.2580
  -3.500  -0.4283   0.00923   0.00314   0.0060  1.0000  0.4032  -1.6115   0.0000   0.0000   0.0000   0.2605
  -3.250  -0.4052   0.00884   0.00299   0.0068  1.0000  0.4655  -1.4716   0.0000   0.0000   0.0000   0.2635
  -3.000  -0.3818   0.00851   0.00289   0.0076  1.0000  0.5252  -1.3440   0.0000   0.0000   0.0000   0.2669
  -2.750  -0.3584   0.00821   0.00282   0.0085  1.0000  0.5826  -1.2190   0.0000   0.0000   0.0000   0.2708
  -2.500  -0.3348   0.00795   0.00278   0.0094  1.0000  0.6379  -1.1038   0.0000   0.0000   0.0000   0.2753
  -2.250  -0.3112   0.00774   0.00277   0.0104  1.0000  0.6914  -0.9955   0.0000   0.0000   0.0000   0.2808
  -2.000  -0.2876   0.00757   0.00280   0.0115  1.0000  0.7429  -0.8962   0.0000   0.0000   0.0000   0.2874
  -1.750  -0.2643   0.00745   0.00286   0.0127  1.0000  0.7912  -0.8038   0.0000   0.0000   0.0000   0.2956
  -1.500  -0.2413   0.00741   0.00297   0.0140  1.0000  0.8364  -0.7207   0.0000   0.0000   0.0000   0.3059
  -1.250  -0.2188   0.00744   0.00310   0.0156  1.0000  0.8779  -0.6464   0.0000   0.0000   0.0000   0.3189
  -1.000  -0.1955   0.00754   0.00327   0.0169  1.0000  0.9154  -0.5785   0.0000   0.0000   0.0000   0.3345
  -0.750  -0.1569   0.00767   0.00340   0.0150  0.9968  0.9451  -0.5014   0.0000   0.0000   0.0000   0.3435
  -0.500  -0.1074   0.00777   0.00349   0.0106  0.9920  0.9640  -0.4264   0.0000   0.0000   0.0000   0.3471
  -0.250  -0.0544   0.00784   0.00355   0.0055  0.9876  0.9753  -0.3630   0.0000   0.0000   0.0000   0.3488
   0.000   0.0000   0.00787   0.00357   0.0000  0.9824  0.9823  -0.3102   0.0000   0.0000   0.0000   0.2493
   0.250   0.0544   0.00784   0.00354  -0.0055  0.9753  0.9876  -0.3630   0.0000   0.0000   0.0000   0.3488
   0.500   0.1074   0.00777   0.00349  -0.0106  0.9640  0.9920  -0.4264   0.0000   0.0000   0.0000   0.3471
   0.750   0.1569   0.00767   0.00340  -0.0150  0.9451  0.9968  -0.5014   0.0000   0.0000   0.0000   0.3435
   1.000   0.1954   0.00754   0.00326  -0.0169  0.9154  1.0000  -0.5784   0.0000   0.0000   0.0000   0.3344
   1.250   0.2188   0.00744   0.00310  -0.0155  0.8779  1.0000  -0.6464   0.0000   0.0000   0.0000   0.3189
   1.500   0.2413   0.00741   0.00297  -0.0140  0.8363  1.0000  -0.7206   0.0000   0.0000   0.0000   0.3059
   1.750   0.2643   0.00745   0.00286  -0.0127  0.7912  1.0000  -0.8037   0.0000   0.0000   0.0000   0.2956
   2.000   0.2876   0.00757   0.00280  -0.0115  0.7429  1.0000  -0.8961   0.0000   0.0000   0.0000   0.2874
   2.250   0.3111   0.00774   0.00277  -0.0104  0.6915  1.0000  -0.9955   0.0000   0.0000   0.0000   0.2807
   2.500   0.3348   0.00795   0.00278  -0.0094  0.6379  1.0000  -1.1038   0.0000   0.0000   0.0000   0.2753
   2.750   0.3583   0.00821   0.00282  -0.0085  0.5826  1.0000  -1.2189   0.0000   0.0000   0.0000   0.2708
   3.000   0.3818   0.00851   0.00289  -0.0076  0.5252  1.0000  -1.3439   0.0000   0.0000   0.0000   0.2669
   3.250   0.4051   0.00884   0.00299  -0.0068  0.4655  1.0000  -1.4715   0.0000   0.0000   0.0000   0.2635
   3.500   0.4283   0.00923   0.00314  -0.0060  0.4032  1.0000  -1.6114   0.0000   0.0000   0.0000   0.2605
   3.750   0.4513   0.00966   0.00331  -0.0052  0.3381  1.0000  -1.7583   0.0000   0.0000   0.0000   0.2579
   4.000   0.4742   0.01017   0.00353  -0.0044  0.2704  1.0000  -1.9073   0.0000   0.0000   0.0000   0.2557
   4.250   0.4967   0.01076   0.00382  -0.0037  0.2021  1.0000  -2.0574   0.0000   0.0000   0.0000   0.2536
   4.500   0.5191   0.01143   0.00419  -0.0029  0.1422  1.0000  -2.2217   0.0000   0.0000   0.0000   0.2516
   4.750   0.5416   0.01212   0.00465  -0.0021  0.1035  1.0000  -2.3882   0.0000   0.0000   0.0000   0.2497
   5.000   0.5644   0.01276   0.00517  -0.0012  0.0821  1.0000  -2.5555   0.0000   0.0000   0.0000   0.2479
   5.250   0.5873   0.01341   0.00576  -0.0004  0.0692  1.0000  -2.7230   0.0000   0.0000   0.0000   0.2462
   5.500   0.6106   0.01402   0.00634   0.0004  0.0601  1.0000  -2.8940   0.0000   0.0000   0.0000   0.2447
   5.750   0.6337   0.01470   0.00699   0.0012  0.0536  1.0000  -3.0705   0.0000   0.0000   0.0000   0.2432
   6.000   0.6568   0.01543   0.00773   0.0021  0.0486  1.0000  -3.2630   0.0000   0.0000   0.0000   0.2418
   6.250   0.6798   0.01621   0.00852   0.0029  0.0443  1.0000  -3.4602   0.0000   0.0000   0.0000   0.2405
   6.500   0.7025   0.01709   0.00934   0.0037  0.0410  1.0000  -3.6607   0.0000   0.0000   0.0000   0.2393
   6.750   0.7261   0.01798   0.01035   0.0045  0.0384  1.0000  -3.8433   0.0000   0.0000   0.0000   0.2381
   7.000   0.7491   0.01897   0.01128   0.0052  0.0360  1.0000  -4.0498   0.0000   0.0000   0.0000   0.2372
   7.250   0.7727   0.01992   0.01241   0.0060  0.0336  1.0000  -4.2342   0.0000   0.0000   0.0000   0.2362
   7.500   0.7961   0.02092   0.01346   0.0066  0.0318  1.0000  -4.4355   0.0000   0.0000   0.0000   0.2354
   7.750   0.8185   0.02256   0.01517   0.0074  0.0305  1.0000  -4.6169   0.0000   0.0000   0.0000   0.2345
   8.000   0.8409   0.02411   0.01705   0.0084  0.0294  1.0000  -4.7905   0.0000   0.0000   0.0000   0.2333
   8.250   0.8625   0.02564   0.01882   0.0093  0.0281  1.0000  -4.9840   0.0000   0.0000   0.0000   0.2323
   8.500   0.8845   0.02685   0.02001   0.0098  0.0268  1.0000  -5.2425   0.0000   0.0000   0.0000   0.2317
   8.750   0.9018   0.02922   0.02278   0.0110  0.0258  1.0000  -5.3775   0.0000   0.0000   0.0000   0.2304
   9.000   0.9161   0.03215   0.02622   0.0126  0.0253  1.0000  -5.4446   0.0000   0.0000   0.0000   0.2286
   9.250   0.9258   0.03579   0.03038   0.0144  0.0251  1.0000  -5.4603   0.0000   0.0000   0.0000   0.2266
   9.500   0.9297   0.04014   0.03525   0.0163  0.0252  1.0000  -5.4200   0.0000   0.0000   0.0000   0.2245
   9.750   0.9281   0.04488   0.04042   0.0181  0.0255  1.0000  -5.3513   0.0000   0.0000   0.0000   0.2223
  10.000   0.9251   0.04929   0.04512   0.0195  0.0259  1.0000  -5.3168   0.0000   0.0000   0.0000   0.2206
  10.250   0.9244   0.05336   0.04933   0.0205  0.0262  1.0000  -5.3365   0.0000   0.0000   0.0000   0.2193
  12.250   0.7250   0.13239   0.12931  -0.0208  0.0410  1.0000  -2.6195   0.0000   0.0000   0.0000   0.2694
  12.500   0.7106   0.14146   0.13833  -0.0274  0.0403  1.0000  -2.3051   0.0000   0.0000   0.0000   0.2792
  12.750   0.7061   0.14765   0.14450  -0.0315  0.0384  1.0000  -2.1482   0.0000   0.0000   0.0000   0.2852
  13.000   0.7104   0.15143   0.14827  -0.0329  0.0371  1.0000  -2.1568   0.0000   0.0000   0.0000   0.2866
  13.250   0.7212   0.15349   0.15034  -0.0322  0.0361  1.0000  -2.3025   0.0000   0.0000   0.0000   0.2846
  13.500   0.7282   0.15692   0.15377  -0.0320  0.0356  1.0000  -2.3984   0.0000   0.0000   0.0000   0.2835
  13.750   0.7172   0.16474   0.16155  -0.0390  0.0339  1.0000  -2.0664   0.0000   0.0000   0.0000   0.2941
  14.000   0.7216   0.16872   0.16552  -0.0408  0.0327  1.0000  -2.0655   0.0000   0.0000   0.0000   0.2960
  14.250   0.7282   0.17210   0.16891  -0.0420  0.0318  1.0000  -2.1143   0.0000   0.0000   0.0000   0.2968
  14.500   0.7389   0.17483   0.17165  -0.0417  0.0312  1.0000  -2.2477   0.0000   0.0000   0.0000   0.2952
  14.750   0.7492   0.17821   0.17504  -0.0411  0.0308  1.0000  -2.3766   0.0000   0.0000   0.0000   0.2933
  15.000   0.7408   0.18495   0.18173  -0.0482  0.0300  1.0000  -2.0292   0.0000   0.0000   0.0000   0.3034
  15.250   0.7459   0.18915   0.18593  -0.0505  0.0287  1.0000  -1.9911   0.0000   0.0000   0.0000   0.3059
  15.500   0.7525   0.19277   0.18955  -0.0522  0.0278  1.0000  -2.0048   0.0000   0.0000   0.0000   0.3073
  15.750   0.7602   0.19603   0.19282  -0.0535  0.0271  1.0000  -2.0539   0.0000   0.0000   0.0000   0.3079
  16.000   0.7701   0.19900   0.19580  -0.0538  0.0267  1.0000  -2.1644   0.0000   0.0000   0.0000   0.3070
  16.250   0.7820   0.20292   0.19972  -0.0533  0.0264  1.0000  -2.2900   0.0000   0.0000   0.0000   0.3050
  16.500   0.7791   0.20790   0.20467  -0.0594  0.0260  1.0000  -2.0100   0.0000   0.0000   0.0000   0.3129
  16.750   0.7849   0.21220   0.20897  -0.0623  0.0249  1.0000  -1.9258   0.0000   0.0000   0.0000   0.3159
  17.000   0.7923   0.21579   0.21256  -0.0643  0.0239  1.0000  -1.9238   0.0000   0.0000   0.0000   0.3174
  17.250   0.8003   0.21896   0.21573  -0.0659  0.0231  1.0000  -1.9630   0.0000   0.0000   0.0000   0.3182
  17.500   0.8097   0.22178   0.21857  -0.0665  0.0225  1.0000  -2.0714   0.0000   0.0000   0.0000   0.3175
  17.750   0.8209   0.22574   0.22254  -0.0663  0.0222  1.0000  -2.1888   0.0000   0.0000   0.0000   0.3158
  18.000   0.8225   0.23007   0.22684  -0.0718  0.0219  1.0000  -1.9437   0.0000   0.0000   0.0000   0.3221
  18.250   0.8299   0.23419   0.23096  -0.0747  0.0209  1.0000  -1.8834   0.0000   0.0000   0.0000   0.3246
  18.500   0.8378   0.23775   0.23452  -0.0769  0.0201  1.0000  -1.8921   0.0000   0.0000   0.0000   0.3260
  18.750   0.8460   0.24109   0.23786  -0.0788  0.0195  1.0000  -1.9202   0.0000   0.0000   0.0000   0.3270
  19.000   0.8543   0.24424   0.24101  -0.0806  0.0191  1.0000  -1.9700   0.0000   0.0000   0.0000   0.3278
  19.250   0.8629   0.24729   0.24408  -0.0818  0.0187  1.0000  -2.0556   0.0000   0.0000   0.0000   0.3279


