xflr5 v6.61

 Calculated polar for: NACA 0009

 1 1 Reynolds number fixed          Mach number fixed         

 xtrf =   1.000 (top)        1.000 (bottom)
 Mach =   0.000     Re =     0.120 e 6     Ncrit =   9.000

  alpha     CL        CD       CDp       Cm    Top Xtr Bot Xtr   Cpmin    Chinge    XCp    
 ------- -------- --------- --------- -------- ------- ------- -------- --------- ---------
  -8.500  -0.8385   0.04790   0.04158  -0.0162  1.0000  0.0574  -3.8941   0.0000   0.0000   0.0000   0.2242
  -8.250  -0.8286   0.04355   0.03690  -0.0151  1.0000  0.0563  -3.8761   0.0000   0.0000   0.0000   0.2255
  -8.000  -0.8187   0.03941   0.03221  -0.0135  1.0000  0.0563  -3.8744   0.0000   0.0000   0.0000   0.2273
  -7.750  -0.8064   0.03582   0.02790  -0.0116  1.0000  0.0575  -3.8598   0.0000   0.0000   0.0000   0.2294
  -7.500  -0.7894   0.03266   0.02413  -0.0101  1.0000  0.0583  -3.8098   0.0000   0.0000   0.0000   0.2312
  -7.250  -0.7668   0.03022   0.02161  -0.0095  1.0000  0.0599  -3.6821   0.0000   0.0000   0.0000   0.2318
  -7.000  -0.7444   0.02812   0.01920  -0.0085  1.0000  0.0625  -3.5742   0.0000   0.0000   0.0000   0.2329
  -6.750  -0.7215   0.02628   0.01713  -0.0076  1.0000  0.0665  -3.4419   0.0000   0.0000   0.0000   0.2339
  -6.500  -0.6973   0.02460   0.01517  -0.0067  1.0000  0.0706  -3.3145   0.0000   0.0000   0.0000   0.2351
  -6.250  -0.6728   0.02301   0.01359  -0.0061  1.0000  0.0755  -3.1558   0.0000   0.0000   0.0000   0.2358
  -6.000  -0.6487   0.02169   0.01222  -0.0053  1.0000  0.0826  -2.9954   0.0000   0.0000   0.0000   0.2368
  -5.750  -0.6247   0.02037   0.01090  -0.0045  1.0000  0.0906  -2.8404   0.0000   0.0000   0.0000   0.2380
  -5.500  -0.6015   0.01919   0.00977  -0.0036  1.0000  0.1020  -2.7036   0.0000   0.0000   0.0000   0.2394
  -5.250  -0.5788   0.01809   0.00874  -0.0026  1.0000  0.1174  -2.5657   0.0000   0.0000   0.0000   0.2410
  -5.000  -0.5576   0.01694   0.00782  -0.0015  1.0000  0.1397  -2.4260   0.0000   0.0000   0.0000   0.2430
  -4.750  -0.5370   0.01575   0.00694  -0.0003  1.0000  0.1797  -2.2901   0.0000   0.0000   0.0000   0.2452
  -4.500  -0.5179   0.01445   0.00619   0.0009  1.0000  0.2593  -2.1535   0.0000   0.0000   0.0000   0.2479
  -4.250  -0.4990   0.01344   0.00573   0.0024  1.0000  0.3638  -2.0160   0.0000   0.0000   0.0000   0.2509
  -4.000  -0.4789   0.01276   0.00545   0.0039  1.0000  0.4543  -1.8776   0.0000   0.0000   0.0000   0.2545
  -3.750  -0.4583   0.01225   0.00525   0.0055  1.0000  0.5314  -1.7376   0.0000   0.0000   0.0000   0.2587
  -3.500  -0.4374   0.01185   0.00511   0.0073  1.0000  0.6010  -1.5984   0.0000   0.0000   0.0000   0.2635
  -3.250  -0.4164   0.01153   0.00501   0.0093  1.0000  0.6642  -1.4682   0.0000   0.0000   0.0000   0.2692
  -3.000  -0.3954   0.01130   0.00498   0.0115  1.0000  0.7230  -1.3465   0.0000   0.0000   0.0000   0.2760
  -2.750  -0.3743   0.01118   0.00500   0.0138  1.0000  0.7773  -1.2270   0.0000   0.0000   0.0000   0.2840
  -2.500  -0.3528   0.01116   0.00507   0.0162  1.0000  0.8278  -1.1165   0.0000   0.0000   0.0000   0.2931
  -2.250  -0.3275   0.01126   0.00518   0.0180  1.0000  0.8724  -1.0037   0.0000   0.0000   0.0000   0.3022
  -2.000  -0.2949   0.01144   0.00532   0.0181  1.0000  0.9127  -0.8873   0.0000   0.0000   0.0000   0.3089
  -1.750  -0.2464   0.01170   0.00547   0.0149  1.0000  0.9434  -0.7548   0.0000   0.0000   0.0000   0.3077
  -1.500  -0.1845   0.01191   0.00552   0.0084  1.0000  0.9651  -0.6210   0.0000   0.0000   0.0000   0.2929
  -1.250  -0.1172   0.01197   0.00544   0.0005  1.0000  0.9811  -0.5042   0.0000   0.0000   0.0000   0.2506
  -1.000  -0.0519   0.01185   0.00522  -0.0074  1.0000  0.9953  -0.4132   0.0000   0.0000   0.0000   0.1015
  -0.750  -0.0214   0.01161   0.00494  -0.0091  1.0000  1.0000  -0.3687   0.0000   0.0000   0.0000  -0.1836
  -0.500  -0.0119   0.01140   0.00474  -0.0066  1.0000  1.0000  -0.3459   0.0000   0.0000   0.0000  -0.3140
  -0.250  -0.0054   0.01128   0.00463  -0.0034  1.0000  1.0000  -0.3270   0.0000   0.0000   0.0000  -0.4040
   0.000   0.0000   0.01124   0.00459  -0.0000  1.0000  1.0000  -0.3106   0.0000   0.0000   0.0000   0.4087
   0.250   0.0054   0.01128   0.00463   0.0034  1.0000  1.0000  -0.3270   0.0000   0.0000   0.0000  -0.4038
   0.500   0.0119   0.01140   0.00474   0.0066  1.0000  1.0000  -0.3459   0.0000   0.0000   0.0000  -0.3137
   0.750   0.0214   0.01160   0.00494   0.0091  1.0000  1.0000  -0.3687   0.0000   0.0000   0.0000  -0.1833
   1.000   0.0519   0.01185   0.00522   0.0074  0.9953  1.0000  -0.4131   0.0000   0.0000   0.0000   0.1014
   1.250   0.1171   0.01197   0.00543  -0.0005  0.9811  1.0000  -0.5042   0.0000   0.0000   0.0000   0.2506
   1.500   0.1845   0.01191   0.00551  -0.0084  0.9651  1.0000  -0.6210   0.0000   0.0000   0.0000   0.2929
   1.750   0.2464   0.01170   0.00546  -0.0149  0.9434  1.0000  -0.7548   0.0000   0.0000   0.0000   0.3077
   2.000   0.2948   0.01144   0.00532  -0.0181  0.9127  1.0000  -0.8873   0.0000   0.0000   0.0000   0.3089
   2.250   0.3275   0.01126   0.00518  -0.0180  0.8724  1.0000  -1.0037   0.0000   0.0000   0.0000   0.3022
   2.500   0.3527   0.01116   0.00507  -0.0162  0.8277  1.0000  -1.1164   0.0000   0.0000   0.0000   0.2931
   2.750   0.3743   0.01118   0.00500  -0.0138  0.7773  1.0000  -1.2269   0.0000   0.0000   0.0000   0.2840
   3.000   0.3954   0.01130   0.00498  -0.0114  0.7230  1.0000  -1.3464   0.0000   0.0000   0.0000   0.2760
   3.250   0.4164   0.01153   0.00501  -0.0093  0.6642  1.0000  -1.4682   0.0000   0.0000   0.0000   0.2692
   3.500   0.4374   0.01185   0.00511  -0.0073  0.6011  1.0000  -1.5983   0.0000   0.0000   0.0000   0.2634
   3.750   0.4583   0.01225   0.00525  -0.0055  0.5314  1.0000  -1.7375   0.0000   0.0000   0.0000   0.2586
   4.000   0.4789   0.01276   0.00545  -0.0039  0.4543  1.0000  -1.8775   0.0000   0.0000   0.0000   0.2545
   4.250   0.4989   0.01344   0.00573  -0.0024  0.3638  1.0000  -2.0159   0.0000   0.0000   0.0000   0.2509
   4.500   0.5179   0.01445   0.00619  -0.0009  0.2593  1.0000  -2.1535   0.0000   0.0000   0.0000   0.2479
   4.750   0.5370   0.01575   0.00694   0.0003  0.1797  1.0000  -2.2901   0.0000   0.0000   0.0000   0.2452
   5.000   0.5576   0.01694   0.00782   0.0015  0.1397  1.0000  -2.4260   0.0000   0.0000   0.0000   0.2430
   5.250   0.5788   0.01809   0.00874   0.0026  0.1174  1.0000  -2.5657   0.0000   0.0000   0.0000   0.2410
   5.500   0.6015   0.01919   0.00977   0.0036  0.1020  1.0000  -2.7036   0.0000   0.0000   0.0000   0.2394
   5.750   0.6247   0.02037   0.01090   0.0045  0.0906  1.0000  -2.8404   0.0000   0.0000   0.0000   0.2380
   6.000   0.6487   0.02168   0.01222   0.0053  0.0826  1.0000  -2.9954   0.0000   0.0000   0.0000   0.2368
   6.250   0.6728   0.02301   0.01359   0.0061  0.0755  1.0000  -3.1558   0.0000   0.0000   0.0000   0.2358
   6.500   0.6973   0.02460   0.01517   0.0067  0.0706  1.0000  -3.3145   0.0000   0.0000   0.0000   0.2351
   6.750   0.7215   0.02628   0.01713   0.0076  0.0665  1.0000  -3.4419   0.0000   0.0000   0.0000   0.2339
   7.000   0.7444   0.02812   0.01920   0.0085  0.0625  1.0000  -3.5742   0.0000   0.0000   0.0000   0.2329
   7.250   0.7668   0.03022   0.02161   0.0095  0.0599  1.0000  -3.6821   0.0000   0.0000   0.0000   0.2318
   7.500   0.7894   0.03266   0.02413   0.0101  0.0583  1.0000  -3.8099   0.0000   0.0000   0.0000   0.2312
   7.750   0.8064   0.03583   0.02790   0.0116  0.0574  1.0000  -3.8598   0.0000   0.0000   0.0000   0.2294
   8.000   0.8187   0.03941   0.03221   0.0135  0.0563  1.0000  -3.8745   0.0000   0.0000   0.0000   0.2273
   8.250   0.8286   0.04355   0.03691   0.0150  0.0563  1.0000  -3.8761   0.0000   0.0000   0.0000   0.2255
   8.500   0.8385   0.04790   0.04159   0.0162  0.0574  1.0000  -3.8942   0.0000   0.0000   0.0000   0.2242
  13.000   0.5171   0.14176   0.13724  -0.0130  0.0890  1.0000  -1.4377   0.0000   0.0000   0.0000   0.2683
  13.250   0.5259   0.14462   0.14012  -0.0127  0.0862  1.0000  -1.4856   0.0000   0.0000   0.0000   0.2671
  13.500   0.5252   0.14753   0.14303  -0.0134  0.0849  1.0000  -1.4642   0.0000   0.0000   0.0000   0.2684
  13.750   0.5139   0.14913   0.14461  -0.0154  0.0822  1.0000  -1.3738   0.0000   0.0000   0.0000   0.2728
  14.000   0.5398   0.15391   0.14942  -0.0136  0.0781  1.0000  -1.5258   0.0000   0.0000   0.0000   0.2678
  14.250   0.5203   0.15454   0.15003  -0.0165  0.0773  1.0000  -1.3771   0.0000   0.0000   0.0000   0.2744
  14.500   0.5170   0.15665   0.15215  -0.0181  0.0742  1.0000  -1.3260   0.0000   0.0000   0.0000   0.2776
  14.750   0.5271   0.15968   0.15520  -0.0179  0.0717  1.0000  -1.3790   0.0000   0.0000   0.0000   0.2764
  15.000   0.5280   0.16262   0.15813  -0.0191  0.0707  1.0000  -1.3536   0.0000   0.0000   0.0000   0.2783
  15.250   0.5225   0.16452   0.16003  -0.0212  0.0686  1.0000  -1.2805   0.0000   0.0000   0.0000   0.2828
  15.500   0.5260   0.16705   0.16257  -0.0221  0.0663  1.0000  -1.2901   0.0000   0.0000   0.0000   0.2841
  15.750   0.5425   0.17143   0.16698  -0.0212  0.0645  1.0000  -1.4107   0.0000   0.0000   0.0000   0.2808
  16.000   0.5340   0.17281   0.16833  -0.0238  0.0639  1.0000  -1.3063   0.0000   0.0000   0.0000   0.2862
  16.250   0.5328   0.17503   0.17056  -0.0256  0.0618  1.0000  -1.2575   0.0000   0.0000   0.0000   0.2897
  16.500   0.5368   0.17762   0.17315  -0.0265  0.0598  1.0000  -1.2652   0.0000   0.0000   0.0000   0.2909
  16.750   0.5488   0.18142   0.17698  -0.0262  0.0583  1.0000  -1.3520   0.0000   0.0000   0.0000   0.2888
  17.000   0.5453   0.18339   0.17894  -0.0283  0.0575  1.0000  -1.2756   0.0000   0.0000   0.0000   0.2930
  17.250   0.5453   0.18566   0.18121  -0.0301  0.0554  1.0000  -1.2282   0.0000   0.0000   0.0000   0.2962
  17.500   0.5505   0.18828   0.18385  -0.0309  0.0532  1.0000  -1.2478   0.0000   0.0000   0.0000   0.2969
  17.750   0.5611   0.19234   0.18792  -0.0308  0.0519  1.0000  -1.3196   0.0000   0.0000   0.0000   0.2953
  18.000   0.5571   0.19390   0.18948  -0.0333  0.0512  1.0000  -1.2218   0.0000   0.0000   0.0000   0.3001
  18.250   0.5592   0.19645   0.19204  -0.0348  0.0495  1.0000  -1.1899   0.0000   0.0000   0.0000   0.3024
  18.500   0.5635   0.19912   0.19472  -0.0359  0.0480  1.0000  -1.1892   0.0000   0.0000   0.0000   0.3036
  18.750   0.5699   0.20210   0.19771  -0.0365  0.0467  1.0000  -1.2214   0.0000   0.0000   0.0000   0.3037
  19.000   0.5763   0.20572   0.20133  -0.0371  0.0461  1.0000  -1.2408   0.0000   0.0000   0.0000   0.3038
  19.250   0.5750   0.20764   0.20325  -0.0393  0.0455  1.0000  -1.1575   0.0000   0.0000   0.0000   0.3077
  19.500   0.5777   0.21028   0.20591  -0.0408  0.0441  1.0000  -1.1383   0.0000   0.0000   0.0000   0.3098
  19.750   0.5817   0.21301   0.20866  -0.0420  0.0428  1.0000  -1.1447   0.0000   0.0000   0.0000   0.3111
  20.000   0.5867   0.21583   0.21150  -0.0429  0.0416  1.0000  -1.1708   0.0000   0.0000   0.0000   0.3118


