xflr5 v6.61

 Calculated polar for: NACA 0012

 1 1 Reynolds number fixed          Mach number fixed         

 xtrf =   1.000 (top)        1.000 (bottom)
 Mach =   0.000     Re =     0.560 e 6     Ncrit =   9.000

  alpha     CL        CD       CDp       Cm    Top Xtr Bot Xtr   Cpmin    Chinge    XCp    
 ------- -------- --------- --------- -------- ------- ------- -------- --------- ---------
 -10.000  -1.0519   0.01848   0.01202  -0.0096  1.0000  0.0316  -5.2798   0.0000   0.0000   0.0000   0.2298
  -9.750  -1.0325   0.01782   0.01135  -0.0084  1.0000  0.0329  -5.0937   0.0000   0.0000   0.0000   0.2311
  -9.500  -1.0114   0.01731   0.01080  -0.0074  1.0000  0.0344  -4.9038   0.0000   0.0000   0.0000   0.2322
  -9.250  -0.9898   0.01686   0.01027  -0.0063  1.0000  0.0358  -4.7161   0.0000   0.0000   0.0000   0.2334
  -9.000  -0.9712   0.01615   0.00958  -0.0049  1.0000  0.0377  -4.5417   0.0000   0.0000   0.0000   0.2350
  -8.750  -0.9497   0.01575   0.00914  -0.0039  1.0000  0.0398  -4.3549   0.0000   0.0000   0.0000   0.2363
  -8.500  -0.9299   0.01520   0.00857  -0.0025  1.0000  0.0420  -4.1812   0.0000   0.0000   0.0000   0.2380
  -8.250  -0.9092   0.01477   0.00813  -0.0013  1.0000  0.0445  -4.0030   0.0000   0.0000   0.0000   0.2396
  -8.000  -0.8887   0.01432   0.00766   0.0001  1.0000  0.0472  -3.8310   0.0000   0.0000   0.0000   0.2413
  -7.750  -0.8681   0.01391   0.00725   0.0013  1.0000  0.0504  -3.6705   0.0000   0.0000   0.0000   0.2430
  -7.500  -0.8477   0.01348   0.00683   0.0027  1.0000  0.0542  -3.5155   0.0000   0.0000   0.0000   0.2449
  -7.250  -0.8266   0.01315   0.00649   0.0039  1.0000  0.0585  -3.3596   0.0000   0.0000   0.0000   0.2468
  -7.000  -0.8061   0.01277   0.00613   0.0053  1.0000  0.0636  -3.2077   0.0000   0.0000   0.0000   0.2488
  -6.750  -0.7856   0.01239   0.00578   0.0066  1.0000  0.0695  -3.0581   0.0000   0.0000   0.0000   0.2509
  -6.500  -0.7649   0.01205   0.00547   0.0079  1.0000  0.0768  -2.9095   0.0000   0.0000   0.0000   0.2531
  -6.250  -0.7440   0.01174   0.00518   0.0092  1.0000  0.0856  -2.7627   0.0000   0.0000   0.0000   0.2553
  -6.000  -0.7232   0.01139   0.00491   0.0105  1.0000  0.0962  -2.6283   0.0000   0.0000   0.0000   0.2576
  -5.500  -0.6807   0.01078   0.00444   0.0127  1.0000  0.1251  -2.3657   0.0000   0.0000   0.0000   0.2623
  -5.250  -0.6508   0.01044   0.00421   0.0120  0.9987  0.1462  -2.2149   0.0000   0.0000   0.0000   0.2622
  -4.750  -0.5776   0.00971   0.00375   0.0078  0.9938  0.2043  -1.9039   0.0000   0.0000   0.0000   0.2576
  -4.500  -0.5414   0.00936   0.00355   0.0058  0.9908  0.2371  -1.7591   0.0000   0.0000   0.0000   0.2549
  -4.250  -0.5044   0.00902   0.00336   0.0036  0.9880  0.2718  -1.6198   0.0000   0.0000   0.0000   0.2516
  -4.000  -0.4685   0.00869   0.00319   0.0018  0.9844  0.3068  -1.4925   0.0000   0.0000   0.0000   0.2482
  -3.750  -0.4311   0.00838   0.00302  -0.0004  0.9814  0.3422  -1.3667   0.0000   0.0000   0.0000   0.2436
  -3.500  -0.3947   0.00809   0.00287  -0.0023  0.9775  0.3769  -1.2534   0.0000   0.0000   0.0000   0.2388
  -3.250  -0.3582   0.00780   0.00272  -0.0042  0.9736  0.4115  -1.1454   0.0000   0.0000   0.0000   0.2330
  -3.000  -0.3251   0.00755   0.00259  -0.0052  0.9674  0.4439  -1.0498   0.0000   0.0000   0.0000   0.2286
  -2.750  -0.2935   0.00730   0.00246  -0.0060  0.9601  0.4755  -0.9641   0.0000   0.0000   0.0000   0.2245
  -2.500  -0.2637   0.00708   0.00234  -0.0062  0.9513  0.5060  -0.8865   0.0000   0.0000   0.0000   0.2213
  -2.250  -0.2357   0.00688   0.00224  -0.0060  0.9405  0.5355  -0.8167   0.0000   0.0000   0.0000   0.2194
  -2.000  -0.2087   0.00670   0.00215  -0.0055  0.9283  0.5644  -0.7537   0.0000   0.0000   0.0000   0.2184
  -1.750  -0.1823   0.00653   0.00206  -0.0049  0.9149  0.5927  -0.6962   0.0000   0.0000   0.0000   0.2179
  -1.500  -0.1563   0.00639   0.00198  -0.0042  0.8996  0.6206  -0.6439   0.0000   0.0000   0.0000   0.2180
  -1.250  -0.1303   0.00627   0.00192  -0.0035  0.8826  0.6482  -0.5966   0.0000   0.0000   0.0000   0.2181
  -1.000  -0.1043   0.00617   0.00186  -0.0028  0.8648  0.6753  -0.5531   0.0000   0.0000   0.0000   0.2183
  -0.500  -0.0522   0.00604   0.00179  -0.0014  0.8238  0.7282  -0.4775   0.0000   0.0000   0.0000   0.2186
  -0.250  -0.0262   0.00600   0.00177  -0.0007  0.8015  0.7534  -0.4443   0.0000   0.0000   0.0000   0.2194
   0.000   0.0000   0.00599   0.00177  -0.0000  0.7778  0.7778  -0.4136   0.0000   0.0000   0.0000   0.4598
   0.250   0.0262   0.00600   0.00177   0.0007  0.7534  0.8015  -0.4443   0.0000   0.0000   0.0000   0.2194
   0.500   0.0522   0.00604   0.00179   0.0014  0.7282  0.8238  -0.4775   0.0000   0.0000   0.0000   0.2186
   1.000   0.1043   0.00617   0.00186   0.0028  0.6753  0.8648  -0.5531   0.0000   0.0000   0.0000   0.2183
   1.250   0.1303   0.00627   0.00192   0.0035  0.6481  0.8826  -0.5966   0.0000   0.0000   0.0000   0.2181
   1.500   0.1563   0.00639   0.00198   0.0042  0.6206  0.8996  -0.6439   0.0000   0.0000   0.0000   0.2180
   1.750   0.1823   0.00653   0.00206   0.0049  0.5928  0.9149  -0.6962   0.0000   0.0000   0.0000   0.2179
   2.000   0.2087   0.00670   0.00215   0.0055  0.5644  0.9283  -0.7537   0.0000   0.0000   0.0000   0.2184
   2.250   0.2357   0.00688   0.00224   0.0060  0.5356  0.9405  -0.8167   0.0000   0.0000   0.0000   0.2194
   2.500   0.2637   0.00708   0.00234   0.0062  0.5060  0.9513  -0.8865   0.0000   0.0000   0.0000   0.2213
   2.750   0.2935   0.00730   0.00246   0.0060  0.4755  0.9602  -0.9640   0.0000   0.0000   0.0000   0.2245
   3.000   0.3251   0.00755   0.00259   0.0052  0.4439  0.9674  -1.0498   0.0000   0.0000   0.0000   0.2286
   3.250   0.3582   0.00780   0.00272   0.0042  0.4115  0.9737  -1.1454   0.0000   0.0000   0.0000   0.2330
   3.500   0.3947   0.00809   0.00287   0.0023  0.3769  0.9775  -1.2533   0.0000   0.0000   0.0000   0.2388
   3.750   0.4311   0.00838   0.00302   0.0004  0.3422  0.9814  -1.3667   0.0000   0.0000   0.0000   0.2436
   4.000   0.4685   0.00869   0.00319  -0.0018  0.3068  0.9844  -1.4925   0.0000   0.0000   0.0000   0.2482
   4.250   0.5044   0.00902   0.00336  -0.0036  0.2718  0.9880  -1.6198   0.0000   0.0000   0.0000   0.2516
   4.500   0.5414   0.00936   0.00355  -0.0058  0.2371  0.9908  -1.7592   0.0000   0.0000   0.0000   0.2549
   4.750   0.5776   0.00971   0.00375  -0.0078  0.2043  0.9938  -1.9039   0.0000   0.0000   0.0000   0.2576
   5.000   0.6143   0.01007   0.00397  -0.0099  0.1737  0.9964  -2.0530   0.0000   0.0000   0.0000   0.2601
   5.250   0.6508   0.01044   0.00420  -0.0120  0.1462  0.9988  -2.2149   0.0000   0.0000   0.0000   0.2622
   5.500   0.6806   0.01078   0.00444  -0.0127  0.1252  1.0000  -2.3655   0.0000   0.0000   0.0000   0.2623
   6.000   0.7231   0.01139   0.00491  -0.0104  0.0962  1.0000  -2.6281   0.0000   0.0000   0.0000   0.2576
   6.250   0.7439   0.01173   0.00518  -0.0092  0.0856  1.0000  -2.7625   0.0000   0.0000   0.0000   0.2553
   6.500   0.7648   0.01205   0.00547  -0.0079  0.0768  1.0000  -2.9093   0.0000   0.0000   0.0000   0.2531
   6.750   0.7856   0.01239   0.00578  -0.0066  0.0695  1.0000  -3.0579   0.0000   0.0000   0.0000   0.2509
   7.000   0.8061   0.01277   0.00613  -0.0053  0.0636  1.0000  -3.2075   0.0000   0.0000   0.0000   0.2488
   7.250   0.8265   0.01315   0.00648  -0.0039  0.0585  1.0000  -3.3594   0.0000   0.0000   0.0000   0.2468
   7.500   0.8476   0.01348   0.00683  -0.0027  0.0542  1.0000  -3.5153   0.0000   0.0000   0.0000   0.2449
   7.750   0.8680   0.01391   0.00725  -0.0013  0.0504  1.0000  -3.6704   0.0000   0.0000   0.0000   0.2430
   8.000   0.8887   0.01432   0.00766  -0.0000  0.0472  1.0000  -3.8309   0.0000   0.0000   0.0000   0.2413
   8.250   0.9092   0.01477   0.00813   0.0013  0.0445  1.0000  -4.0029   0.0000   0.0000   0.0000   0.2396
   8.500   0.9299   0.01520   0.00857   0.0025  0.0420  1.0000  -4.1811   0.0000   0.0000   0.0000   0.2380
   8.750   0.9497   0.01574   0.00913   0.0039  0.0398  1.0000  -4.3549   0.0000   0.0000   0.0000   0.2363
   9.000   0.9712   0.01615   0.00958   0.0049  0.0377  1.0000  -4.5418   0.0000   0.0000   0.0000   0.2350
   9.250   0.9898   0.01686   0.01027   0.0063  0.0358  1.0000  -4.7162   0.0000   0.0000   0.0000   0.2334
   9.500   1.0115   0.01731   0.01080   0.0073  0.0344  1.0000  -4.9040   0.0000   0.0000   0.0000   0.2323
   9.750   1.0325   0.01782   0.01135   0.0084  0.0329  1.0000  -5.0940   0.0000   0.0000   0.0000   0.2311
  10.000   1.0520   0.01848   0.01202   0.0095  0.0316  1.0000  -5.2802   0.0000   0.0000   0.0000   0.2298
  10.250   1.0697   0.01932   0.01290   0.0110  0.0304  1.0000  -5.4519   0.0000   0.0000   0.0000   0.2283
  10.500   1.0902   0.01987   0.01354   0.0120  0.0293  1.0000  -5.6433   0.0000   0.0000   0.0000   0.2272
  10.750   1.1101   0.02045   0.01417   0.0130  0.0282  1.0000  -5.8525   0.0000   0.0000   0.0000   0.2262
  11.000   1.1284   0.02115   0.01489   0.0142  0.0272  1.0000  -6.0617   0.0000   0.0000   0.0000   0.2250
  11.250   1.1414   0.02232   0.01609   0.0160  0.0263  1.0000  -6.2346   0.0000   0.0000   0.0000   0.2232
  11.500   1.1595   0.02299   0.01687   0.0173  0.0256  1.0000  -6.4394   0.0000   0.0000   0.0000   0.2220
  11.750   1.1757   0.02378   0.01775   0.0187  0.0249  1.0000  -6.6369   0.0000   0.0000   0.0000   0.2206
  12.000   1.1904   0.02460   0.01865   0.0203  0.0242  1.0000  -6.8308   0.0000   0.0000   0.0000   0.2191
  12.250   1.2020   0.02544   0.01954   0.0223  0.0236  1.0000  -7.0139   0.0000   0.0000   0.0000   0.2172
  12.500   1.2118   0.02642   0.02057   0.0243  0.0231  1.0000  -7.1886   0.0000   0.0000   0.0000   0.2153
  12.750   1.2174   0.02783   0.02203   0.0265  0.0226  1.0000  -7.3332   0.0000   0.0000   0.0000   0.2132
  13.000   1.2211   0.02954   0.02384   0.0286  0.0222  1.0000  -7.4555   0.0000   0.0000   0.0000   0.2111
  13.250   1.2297   0.03080   0.02523   0.0300  0.0218  1.0000  -7.6150   0.0000   0.0000   0.0000   0.2097
  13.500   1.2368   0.03225   0.02682   0.0312  0.0214  1.0000  -7.7655   0.0000   0.0000   0.0000   0.2084
  13.750   1.2427   0.03390   0.02859   0.0322  0.0210  1.0000  -7.9090   0.0000   0.0000   0.0000   0.2073
  14.000   1.2478   0.03573   0.03054   0.0329  0.0206  1.0000  -8.0487   0.0000   0.0000   0.0000   0.2064
  14.250   1.2520   0.03774   0.03265   0.0332  0.0202  1.0000  -8.1849   0.0000   0.0000   0.0000   0.2057
  14.500   1.2555   0.03996   0.03497   0.0331  0.0199  1.0000  -8.3161   0.0000   0.0000   0.0000   0.2053
  14.750   1.2577   0.04246   0.03755   0.0328  0.0195  1.0000  -8.4378   0.0000   0.0000   0.0000   0.2051
  15.000   1.2581   0.04530   0.04049   0.0321  0.0193  1.0000  -8.5438   0.0000   0.0000   0.0000   0.2051
  15.250   1.2558   0.04860   0.04388   0.0312  0.0190  1.0000  -8.6240   0.0000   0.0000   0.0000   0.2053
  15.500   1.2498   0.05247   0.04786   0.0300  0.0188  1.0000  -8.6688   0.0000   0.0000   0.0000   0.2056
  15.750   1.2387   0.05711   0.05263   0.0285  0.0186  1.0000  -8.6618   0.0000   0.0000   0.0000   0.2060
  16.000   1.2263   0.06219   0.05787   0.0264  0.0184  1.0000  -8.6362   0.0000   0.0000   0.0000   0.2070
  16.250   1.2167   0.06714   0.06298   0.0238  0.0184  1.0000  -8.6364   0.0000   0.0000   0.0000   0.2084
  16.500   1.2050   0.07261   0.06861   0.0208  0.0183  1.0000  -8.6180   0.0000   0.0000   0.0000   0.2100
  16.750   1.1911   0.07860   0.07476   0.0175  0.0182  1.0000  -8.5732   0.0000   0.0000   0.0000   0.2121
  17.000   1.1751   0.08515   0.08146   0.0138  0.0181  1.0000  -8.4995   0.0000   0.0000   0.0000   0.2144
  17.250   1.1570   0.09231   0.08878   0.0097  0.0181  1.0000  -8.3950   0.0000   0.0000   0.0000   0.2172
  17.500   1.1364   0.10011   0.09674   0.0052  0.0181  1.0000  -8.2535   0.0000   0.0000   0.0000   0.2205
  17.750   1.1129   0.10877   0.10556   0.0002  0.0180  1.0000  -8.0663   0.0000   0.0000   0.0000   0.2244
  18.000   1.0855   0.11853   0.11550  -0.0055  0.0181  1.0000  -7.8151   0.0000   0.0000   0.0000   0.2292
  18.250   1.0507   0.13030   0.12745  -0.0124  0.0181  1.0000  -7.4469   0.0000   0.0000   0.0000   0.2356


