xflr5 v6.61

 Calculated polar for: NACA 0012

 1 1 Reynolds number fixed          Mach number fixed         

 xtrf =   1.000 (top)        1.000 (bottom)
 Mach =   0.000     Re =     0.725 e 6     Ncrit =   9.000

  alpha     CL        CD       CDp       Cm    Top Xtr Bot Xtr   Cpmin    Chinge    XCp    
 ------- -------- --------- --------- -------- ------- ------- -------- --------- ---------
 -10.000  -1.0666   0.01677   0.01061  -0.0074  1.0000  0.0286  -5.3889   0.0000   0.0000   0.0000   0.2320
  -9.750  -1.0449   0.01632   0.01012  -0.0064  1.0000  0.0298  -5.1889   0.0000   0.0000   0.0000   0.2331
  -9.500  -1.0224   0.01595   0.00968  -0.0056  1.0000  0.0309  -4.9892   0.0000   0.0000   0.0000   0.2341
  -9.250  -1.0036   0.01525   0.00899  -0.0042  1.0000  0.0325  -4.8108   0.0000   0.0000   0.0000   0.2357
  -9.000  -0.9820   0.01485   0.00857  -0.0031  1.0000  0.0342  -4.6179   0.0000   0.0000   0.0000   0.2370
  -8.500  -0.9403   0.01399   0.00767  -0.0007  1.0000  0.0380  -4.2488   0.0000   0.0000   0.0000   0.2400
  -8.250  -0.9185   0.01367   0.00733   0.0004  1.0000  0.0403  -4.0628   0.0000   0.0000   0.0000   0.2415
  -8.000  -0.8982   0.01323   0.00689   0.0018  1.0000  0.0429  -3.8877   0.0000   0.0000   0.0000   0.2433
  -7.750  -0.8768   0.01292   0.00656   0.0030  1.0000  0.0457  -3.7200   0.0000   0.0000   0.0000   0.2449
  -7.500  -0.8564   0.01253   0.00619   0.0044  1.0000  0.0490  -3.5625   0.0000   0.0000   0.0000   0.2469
  -7.250  -0.8352   0.01223   0.00588   0.0056  1.0000  0.0528  -3.4039   0.0000   0.0000   0.0000   0.2488
  -7.000  -0.8143   0.01192   0.00559   0.0069  1.0000  0.0574  -3.2480   0.0000   0.0000   0.0000   0.2508
  -6.750  -0.7936   0.01159   0.00529   0.0083  1.0000  0.0628  -3.0953   0.0000   0.0000   0.0000   0.2529
  -6.500  -0.7726   0.01129   0.00502   0.0095  1.0000  0.0689  -2.9444   0.0000   0.0000   0.0000   0.2551
  -6.250  -0.7515   0.01101   0.00477   0.0108  1.0000  0.0765  -2.7951   0.0000   0.0000   0.0000   0.2573
  -6.000  -0.7275   0.01073   0.00453   0.0114  0.9997  0.0861  -2.6480   0.0000   0.0000   0.0000   0.2588
  -5.750  -0.6919   0.01039   0.00426   0.0095  0.9979  0.1004  -2.4757   0.0000   0.0000   0.0000   0.2571
  -5.500  -0.6566   0.01004   0.00401   0.0077  0.9958  0.1178  -2.3078   0.0000   0.0000   0.0000   0.2553
  -5.250  -0.6209   0.00968   0.00377   0.0058  0.9937  0.1392  -2.1427   0.0000   0.0000   0.0000   0.2531
  -5.000  -0.5857   0.00934   0.00354   0.0041  0.9911  0.1633  -1.9900   0.0000   0.0000   0.0000   0.2508
  -4.750  -0.5502   0.00898   0.00332   0.0022  0.9886  0.1912  -1.8447   0.0000   0.0000   0.0000   0.2480
  -4.500  -0.5143   0.00864   0.00312   0.0003  0.9862  0.2211  -1.7017   0.0000   0.0000   0.0000   0.2448
  -4.250  -0.4793   0.00831   0.00293  -0.0013  0.9829  0.2524  -1.5713   0.0000   0.0000   0.0000   0.2414
  -4.000  -0.4424   0.00800   0.00275  -0.0034  0.9807  0.2856  -1.4430   0.0000   0.0000   0.0000   0.2366
  -3.750  -0.4096   0.00770   0.00259  -0.0045  0.9756  0.3175  -1.3294   0.0000   0.0000   0.0000   0.2333
  -3.500  -0.3767   0.00743   0.00244  -0.0056  0.9705  0.3492  -1.2230   0.0000   0.0000   0.0000   0.2296
  -3.250  -0.3455   0.00716   0.00230  -0.0063  0.9641  0.3804  -1.1258   0.0000   0.0000   0.0000   0.2265
  -3.000  -0.3172   0.00694   0.00218  -0.0062  0.9553  0.4103  -1.0379   0.0000   0.0000   0.0000   0.2250
  -2.750  -0.2899   0.00673   0.00206  -0.0059  0.9449  0.4395  -0.9592   0.0000   0.0000   0.0000   0.2243
  -2.500  -0.2636   0.00654   0.00196  -0.0054  0.9327  0.4681  -0.8863   0.0000   0.0000   0.0000   0.2243
  -2.250  -0.2374   0.00637   0.00187  -0.0049  0.9193  0.4964  -0.8187   0.0000   0.0000   0.0000   0.2244
  -2.000  -0.2112   0.00622   0.00178  -0.0043  0.9048  0.5246  -0.7563   0.0000   0.0000   0.0000   0.2248
  -1.750  -0.1850   0.00609   0.00170  -0.0037  0.8891  0.5525  -0.6990   0.0000   0.0000   0.0000   0.2251
  -1.500  -0.1587   0.00597   0.00163  -0.0031  0.8712  0.5801  -0.6462   0.0000   0.0000   0.0000   0.2254
  -1.250  -0.1324   0.00588   0.00157  -0.0026  0.8526  0.6075  -0.5983   0.0000   0.0000   0.0000   0.2258
  -1.000  -0.1060   0.00580   0.00153  -0.0020  0.8319  0.6345  -0.5544   0.0000   0.0000   0.0000   0.2259
  -0.750  -0.0795   0.00574   0.00149  -0.0015  0.8105  0.6614  -0.5145   0.0000   0.0000   0.0000   0.2260
  -0.500  -0.0530   0.00571   0.00146  -0.0010  0.7877  0.6880  -0.4780   0.0000   0.0000   0.0000   0.2261
  -0.250  -0.0265   0.00568   0.00145  -0.0005  0.7637  0.7140  -0.4445   0.0000   0.0000   0.0000   0.2259
   0.000  -0.0000   0.00567   0.00145   0.0000  0.7392  0.7392  -0.4137   0.0000   0.0000   0.0000   0.4670
   0.250   0.0265   0.00568   0.00145   0.0005  0.7140  0.7637  -0.4445   0.0000   0.0000   0.0000   0.2259
   0.750   0.0795   0.00574   0.00149   0.0015  0.6614  0.8105  -0.5146   0.0000   0.0000   0.0000   0.2260
   1.000   0.1060   0.00580   0.00153   0.0020  0.6346  0.8319  -0.5544   0.0000   0.0000   0.0000   0.2259
   1.250   0.1324   0.00588   0.00157   0.0026  0.6075  0.8526  -0.5983   0.0000   0.0000   0.0000   0.2258
   1.500   0.1587   0.00597   0.00163   0.0031  0.5801  0.8712  -0.6462   0.0000   0.0000   0.0000   0.2254
   1.750   0.1850   0.00609   0.00170   0.0037  0.5525  0.8890  -0.6990   0.0000   0.0000   0.0000   0.2251
   2.000   0.2112   0.00622   0.00178   0.0043  0.5246  0.9048  -0.7563   0.0000   0.0000   0.0000   0.2248
   2.250   0.2374   0.00637   0.00187   0.0049  0.4964  0.9193  -0.8187   0.0000   0.0000   0.0000   0.2244
   2.500   0.2636   0.00654   0.00196   0.0054  0.4681  0.9327  -0.8863   0.0000   0.0000   0.0000   0.2243
   2.750   0.2899   0.00673   0.00206   0.0059  0.4395  0.9449  -0.9592   0.0000   0.0000   0.0000   0.2243
   3.000   0.3172   0.00694   0.00218   0.0062  0.4103  0.9552  -1.0379   0.0000   0.0000   0.0000   0.2250
   3.250   0.3455   0.00716   0.00230   0.0063  0.3804  0.9641  -1.1258   0.0000   0.0000   0.0000   0.2265
   3.500   0.3767   0.00743   0.00244   0.0056  0.3492  0.9705  -1.2230   0.0000   0.0000   0.0000   0.2296
   3.750   0.4096   0.00770   0.00259   0.0045  0.3175  0.9756  -1.3294   0.0000   0.0000   0.0000   0.2334
   4.000   0.4424   0.00800   0.00275   0.0034  0.2855  0.9807  -1.4431   0.0000   0.0000   0.0000   0.2366
   4.250   0.4793   0.00831   0.00293   0.0013  0.2524  0.9829  -1.5713   0.0000   0.0000   0.0000   0.2415
   4.500   0.5143   0.00864   0.00312  -0.0003  0.2211  0.9863  -1.7017   0.0000   0.0000   0.0000   0.2447
   4.750   0.5502   0.00898   0.00332  -0.0022  0.1912  0.9886  -1.8447   0.0000   0.0000   0.0000   0.2480
   5.000   0.5857   0.00934   0.00354  -0.0041  0.1633  0.9911  -1.9901   0.0000   0.0000   0.0000   0.2508
   5.250   0.6209   0.00968   0.00377  -0.0058  0.1392  0.9937  -2.1428   0.0000   0.0000   0.0000   0.2531
   5.500   0.6566   0.01004   0.00401  -0.0077  0.1178  0.9958  -2.3079   0.0000   0.0000   0.0000   0.2553
   5.750   0.6919   0.01039   0.00426  -0.0095  0.1004  0.9979  -2.4758   0.0000   0.0000   0.0000   0.2571
   6.000   0.7276   0.01073   0.00453  -0.0114  0.0861  0.9997  -2.6481   0.0000   0.0000   0.0000   0.2588
   6.250   0.7514   0.01101   0.00477  -0.0107  0.0765  1.0000  -2.7948   0.0000   0.0000   0.0000   0.2573
   6.500   0.7726   0.01129   0.00502  -0.0095  0.0689  1.0000  -2.9441   0.0000   0.0000   0.0000   0.2551
   6.750   0.7935   0.01159   0.00529  -0.0082  0.0628  1.0000  -3.0951   0.0000   0.0000   0.0000   0.2529
   7.000   0.8143   0.01192   0.00558  -0.0069  0.0574  1.0000  -3.2477   0.0000   0.0000   0.0000   0.2508
   7.250   0.8351   0.01223   0.00588  -0.0056  0.0528  1.0000  -3.4037   0.0000   0.0000   0.0000   0.2488
   7.500   0.8563   0.01253   0.00619  -0.0044  0.0490  1.0000  -3.5623   0.0000   0.0000   0.0000   0.2469
   7.750   0.8767   0.01292   0.00656  -0.0030  0.0457  1.0000  -3.7198   0.0000   0.0000   0.0000   0.2449
   8.000   0.8981   0.01323   0.00689  -0.0018  0.0429  1.0000  -3.8875   0.0000   0.0000   0.0000   0.2432
   8.250   0.9184   0.01367   0.00733  -0.0004  0.0403  1.0000  -4.0627   0.0000   0.0000   0.0000   0.2415
   8.500   0.9403   0.01399   0.00767   0.0007  0.0380  1.0000  -4.2487   0.0000   0.0000   0.0000   0.2400
   8.750   0.9598   0.01453   0.00820   0.0021  0.0357  1.0000  -4.4259   0.0000   0.0000   0.0000   0.2382
   9.000   0.9820   0.01485   0.00856   0.0031  0.0342  1.0000  -4.6178   0.0000   0.0000   0.0000   0.2370
   9.250   1.0036   0.01525   0.00899   0.0042  0.0325  1.0000  -4.8108   0.0000   0.0000   0.0000   0.2357
   9.500   1.0224   0.01595   0.00968   0.0056  0.0309  1.0000  -4.9894   0.0000   0.0000   0.0000   0.2341
   9.750   1.0449   0.01632   0.01012   0.0064  0.0298  1.0000  -5.1891   0.0000   0.0000   0.0000   0.2331
  10.000   1.0667   0.01677   0.01061   0.0074  0.0286  1.0000  -5.3892   0.0000   0.0000   0.0000   0.2320
  10.250   1.0878   0.01729   0.01115   0.0083  0.0274  1.0000  -5.5911   0.0000   0.0000   0.0000   0.2309
  10.500   1.1056   0.01810   0.01199   0.0097  0.0262  1.0000  -5.7722   0.0000   0.0000   0.0000   0.2295
  10.750   1.1274   0.01855   0.01251   0.0106  0.0254  1.0000  -5.9935   0.0000   0.0000   0.0000   0.2285
  11.000   1.1479   0.01910   0.01311   0.0115  0.0245  1.0000  -6.2149   0.0000   0.0000   0.0000   0.2275
  11.250   1.1677   0.01968   0.01374   0.0126  0.0237  1.0000  -6.4376   0.0000   0.0000   0.0000   0.2264
  11.500   1.1852   0.02044   0.01452   0.0139  0.0230  1.0000  -6.6495   0.0000   0.0000   0.0000   0.2252
  11.750   1.1972   0.02161   0.01575   0.0158  0.0222  1.0000  -6.8232   0.0000   0.0000   0.0000   0.2233
  12.000   1.2156   0.02222   0.01646   0.0170  0.0218  1.0000  -7.0421   0.0000   0.0000   0.0000   0.2221
  12.250   1.2320   0.02295   0.01727   0.0184  0.0212  1.0000  -7.2519   0.0000   0.0000   0.0000   0.2208
  12.500   1.2457   0.02372   0.01811   0.0202  0.0207  1.0000  -7.4502   0.0000   0.0000   0.0000   0.2192
  12.750   1.2571   0.02453   0.01899   0.0222  0.0202  1.0000  -7.6404   0.0000   0.0000   0.0000   0.2173
  13.000   1.2681   0.02541   0.01993   0.0240  0.0198  1.0000  -7.8315   0.0000   0.0000   0.0000   0.2156
  13.250   1.2775   0.02645   0.02103   0.0258  0.0193  1.0000  -8.0148   0.0000   0.0000   0.0000   0.2139
  13.500   1.2816   0.02793   0.02257   0.0278  0.0189  1.0000  -8.1614   0.0000   0.0000   0.0000   0.2120
  13.750   1.2791   0.03010   0.02484   0.0298  0.0184  1.0000  -8.2525   0.0000   0.0000   0.0000   0.2099
  14.000   1.2885   0.03141   0.02626   0.0307  0.0182  1.0000  -8.4309   0.0000   0.0000   0.0000   0.2090
  14.250   1.2954   0.03304   0.02801   0.0314  0.0179  1.0000  -8.5900   0.0000   0.0000   0.0000   0.2081
  14.500   1.3000   0.03500   0.03008   0.0318  0.0177  1.0000  -8.7322   0.0000   0.0000   0.0000   0.2073
  14.750   1.3032   0.03725   0.03245   0.0319  0.0174  1.0000  -8.8624   0.0000   0.0000   0.0000   0.2068
  15.000   1.3050   0.03980   0.03512   0.0316  0.0172  1.0000  -8.9812   0.0000   0.0000   0.0000   0.2065
  15.250   1.3054   0.04269   0.03813   0.0310  0.0169  1.0000  -9.0881   0.0000   0.0000   0.0000   0.2065
  15.500   1.3043   0.04593   0.04148   0.0299  0.0167  1.0000  -9.1816   0.0000   0.0000   0.0000   0.2067
  15.750   1.3015   0.04953   0.04519   0.0285  0.0165  1.0000  -9.2595   0.0000   0.0000   0.0000   0.2072
  16.000   1.2970   0.05353   0.04931   0.0267  0.0163  1.0000  -9.3204   0.0000   0.0000   0.0000   0.2079
  16.250   1.2902   0.05794   0.05383   0.0246  0.0162  1.0000  -9.3652   0.0000   0.0000   0.0000   0.2089
  16.500   1.2815   0.06278   0.05878   0.0222  0.0161  1.0000  -9.3920   0.0000   0.0000   0.0000   0.2100
  16.750   1.2705   0.06800   0.06412   0.0196  0.0160  1.0000  -9.3947   0.0000   0.0000   0.0000   0.2113
  17.000   1.2577   0.07363   0.06986   0.0167  0.0159  1.0000  -9.3746   0.0000   0.0000   0.0000   0.2128
  17.250   1.2435   0.07964   0.07600   0.0136  0.0158  1.0000  -9.3334   0.0000   0.0000   0.0000   0.2146
  17.500   1.2278   0.08597   0.08244   0.0104  0.0157  1.0000  -9.2721   0.0000   0.0000   0.0000   0.2165
  17.750   1.2113   0.09262   0.08920   0.0069  0.0156  1.0000  -9.1929   0.0000   0.0000   0.0000   0.2187
  18.000   1.1939   0.09953   0.09622   0.0033  0.0156  1.0000  -9.0960   0.0000   0.0000   0.0000   0.2211
  18.250   1.1758   0.10670   0.10351  -0.0005  0.0155  1.0000  -8.9807   0.0000   0.0000   0.0000   0.2238
  18.500   1.1570   0.11418   0.11111  -0.0045  0.0154  1.0000  -8.8458   0.0000   0.0000   0.0000   0.2267
  18.750   1.1372   0.12201   0.11906  -0.0087  0.0154  1.0000  -8.6842   0.0000   0.0000   0.0000   0.2300
  19.000   1.1159   0.13037   0.12754  -0.0134  0.0153  1.0000  -8.4876   0.0000   0.0000   0.0000   0.2339
  19.250   1.0925   0.13952   0.13682  -0.0186  0.0153  1.0000  -8.2399   0.0000   0.0000   0.0000   0.2385
  19.500   1.0646   0.15007   0.14751  -0.0248  0.0152  1.0000  -7.9003   0.0000   0.0000   0.0000   0.2445


