xflr5 v6.61

 Calculated polar for: NACA 0009

 1 1 Reynolds number fixed          Mach number fixed         

 xtrf =   1.000 (top)        1.000 (bottom)
 Mach =   0.000     Re =     0.700 e 6     Ncrit =   9.000

  alpha     CL        CD       CDp       Cm    Top Xtr Bot Xtr   Cpmin    Chinge    XCp    
 ------- -------- --------- --------- -------- ------- ------- -------- --------- ---------
 -10.000  -1.0423   0.02200   0.01668  -0.0094  1.0000  0.0128  -7.7148   0.0000   0.0000   0.0000   0.2319
  -9.750  -1.0206   0.02127   0.01588  -0.0087  1.0000  0.0133  -7.3956   0.0000   0.0000   0.0000   0.2326
  -9.500  -0.9988   0.02043   0.01493  -0.0080  1.0000  0.0139  -7.0985   0.0000   0.0000   0.0000   0.2334
  -9.250  -0.9770   0.01952   0.01389  -0.0073  1.0000  0.0144  -6.8187   0.0000   0.0000   0.0000   0.2343
  -9.000  -0.9543   0.01874   0.01298  -0.0066  1.0000  0.0148  -6.5349   0.0000   0.0000   0.0000   0.2351
  -8.750  -0.9343   0.01742   0.01154  -0.0056  1.0000  0.0154  -6.2927   0.0000   0.0000   0.0000   0.2363
  -8.500  -0.9120   0.01659   0.01067  -0.0049  1.0000  0.0161  -6.0039   0.0000   0.0000   0.0000   0.2372
  -8.250  -0.8882   0.01599   0.01002  -0.0043  1.0000  0.0169  -5.7075   0.0000   0.0000   0.0000   0.2380
  -8.000  -0.8642   0.01540   0.00936  -0.0038  1.0000  0.0178  -5.4211   0.0000   0.0000   0.0000   0.2387
  -7.750  -0.8396   0.01491   0.00877  -0.0032  1.0000  0.0185  -5.1457   0.0000   0.0000   0.0000   0.2395
  -7.500  -0.8172   0.01407   0.00792  -0.0025  1.0000  0.0199  -4.9089   0.0000   0.0000   0.0000   0.2405
  -7.250  -0.7925   0.01362   0.00744  -0.0020  1.0000  0.0212  -4.6549   0.0000   0.0000   0.0000   0.2413
  -7.000  -0.7674   0.01322   0.00697  -0.0015  1.0000  0.0223  -4.4106   0.0000   0.0000   0.0000   0.2421
  -6.750  -0.7443   0.01252   0.00625  -0.0008  1.0000  0.0241  -4.1814   0.0000   0.0000   0.0000   0.2432
  -6.500  -0.7193   0.01214   0.00584  -0.0003  1.0000  0.0259  -3.9403   0.0000   0.0000   0.0000   0.2441
  -6.250  -0.6952   0.01164   0.00533   0.0003  1.0000  0.0282  -3.7089   0.0000   0.0000   0.0000   0.2452
  -6.000  -0.6701   0.01135   0.00500   0.0009  1.0000  0.0309  -3.4728   0.0000   0.0000   0.0000   0.2463
  -5.750  -0.6461   0.01090   0.00457   0.0016  1.0000  0.0344  -3.2499   0.0000   0.0000   0.0000   0.2476
  -5.500  -0.6219   0.01052   0.00419   0.0023  1.0000  0.0386  -3.0405   0.0000   0.0000   0.0000   0.2490
  -5.250  -0.5977   0.01018   0.00388   0.0030  1.0000  0.0442  -2.8460   0.0000   0.0000   0.0000   0.2505
  -5.000  -0.5734   0.00988   0.00358   0.0037  1.0000  0.0519  -2.6544   0.0000   0.0000   0.0000   0.2521
  -4.750  -0.5495   0.00952   0.00330   0.0044  1.0000  0.0630  -2.4676   0.0000   0.0000   0.0000   0.2539
  -4.500  -0.5256   0.00919   0.00305   0.0051  1.0000  0.0795  -2.2840   0.0000   0.0000   0.0000   0.2558
  -4.250  -0.5020   0.00884   0.00282   0.0059  1.0000  0.1035  -2.1046   0.0000   0.0000   0.0000   0.2579
  -4.000  -0.4783   0.00850   0.00261   0.0066  1.0000  0.1351  -1.9432   0.0000   0.0000   0.0000   0.2601
  -3.750  -0.4547   0.00813   0.00243   0.0072  1.0000  0.1749  -1.7891   0.0000   0.0000   0.0000   0.2624
  -3.500  -0.4309   0.00779   0.00228   0.0079  1.0000  0.2204  -1.6379   0.0000   0.0000   0.0000   0.2649
  -3.250  -0.4068   0.00746   0.00215   0.0084  1.0000  0.2702  -1.4899   0.0000   0.0000   0.0000   0.2675
  -3.000  -0.3772   0.00712   0.00204   0.0078  0.9990  0.3257  -1.3457   0.0000   0.0000   0.0000   0.2675
  -2.750  -0.3406   0.00677   0.00192   0.0056  0.9964  0.3868  -1.1886   0.0000   0.0000   0.0000   0.2635
  -2.500  -0.3038   0.00644   0.00181   0.0035  0.9935  0.4460  -1.0473   0.0000   0.0000   0.0000   0.2586
  -2.250  -0.2677   0.00613   0.00172   0.0016  0.9897  0.5026  -0.9172   0.0000   0.0000   0.0000   0.2529
  -2.000  -0.2305   0.00585   0.00164  -0.0006  0.9865  0.5577  -0.7986   0.0000   0.0000   0.0000   0.2447
  -1.750  -0.1950   0.00558   0.00156  -0.0022  0.9815  0.6094  -0.6962   0.0000   0.0000   0.0000   0.2357
  -1.500  -0.1616   0.00535   0.00150  -0.0034  0.9745  0.6576  -0.6087   0.0000   0.0000   0.0000   0.2263
  -1.250  -0.1301   0.00514   0.00145  -0.0040  0.9653  0.7020  -0.5340   0.0000   0.0000   0.0000   0.2165
  -1.000  -0.1012   0.00496   0.00141  -0.0039  0.9529  0.7426  -0.4724   0.0000   0.0000   0.0000   0.2083
  -0.750  -0.0746   0.00482   0.00138  -0.0033  0.9374  0.7795  -0.4212   0.0000   0.0000   0.0000   0.2028
  -0.500  -0.0492   0.00471   0.00136  -0.0024  0.9188  0.8138  -0.3786   0.0000   0.0000   0.0000   0.1993
  -0.250  -0.0245   0.00464   0.00135  -0.0012  0.8972  0.8445  -0.3422   0.0000   0.0000   0.0000   0.1983
   0.000   0.0000   0.00462   0.00135  -0.0000  0.8724  0.8724  -0.3107   0.0000   0.0000   0.0000   0.4904
   0.250   0.0245   0.00464   0.00135   0.0012  0.8445  0.8972  -0.3422   0.0000   0.0000   0.0000   0.1983
   0.500   0.0492   0.00471   0.00136   0.0024  0.8138  0.9188  -0.3786   0.0000   0.0000   0.0000   0.1993
   0.750   0.0746   0.00482   0.00138   0.0033  0.7795  0.9374  -0.4212   0.0000   0.0000   0.0000   0.2028
   1.000   0.1012   0.00496   0.00141   0.0039  0.7426  0.9529  -0.4724   0.0000   0.0000   0.0000   0.2083
   1.250   0.1301   0.00514   0.00145   0.0040  0.7020  0.9653  -0.5340   0.0000   0.0000   0.0000   0.2165
   1.500   0.1616   0.00535   0.00150   0.0034  0.6576  0.9745  -0.6087   0.0000   0.0000   0.0000   0.2263
   1.750   0.1950   0.00558   0.00156   0.0022  0.6094  0.9815  -0.6962   0.0000   0.0000   0.0000   0.2357
   2.000   0.2305   0.00585   0.00164   0.0006  0.5577  0.9865  -0.7986   0.0000   0.0000   0.0000   0.2447
   2.250   0.2677   0.00613   0.00172  -0.0016  0.5026  0.9897  -0.9172   0.0000   0.0000   0.0000   0.2529
   2.500   0.3038   0.00644   0.00181  -0.0035  0.4460  0.9935  -1.0473   0.0000   0.0000   0.0000   0.2586
   2.750   0.3406   0.00677   0.00192  -0.0056  0.3869  0.9964  -1.1886   0.0000   0.0000   0.0000   0.2635
   3.000   0.3772   0.00712   0.00204  -0.0078  0.3257  0.9990  -1.3458   0.0000   0.0000   0.0000   0.2675
   3.250   0.4068   0.00746   0.00215  -0.0084  0.2703  1.0000  -1.4898   0.0000   0.0000   0.0000   0.2675
   3.500   0.4309   0.00778   0.00228  -0.0079  0.2205  1.0000  -1.6378   0.0000   0.0000   0.0000   0.2649
   3.750   0.4547   0.00813   0.00243  -0.0072  0.1750  1.0000  -1.7889   0.0000   0.0000   0.0000   0.2624
   4.250   0.5019   0.00884   0.00282  -0.0059  0.1035  1.0000  -2.1045   0.0000   0.0000   0.0000   0.2579
   4.500   0.5256   0.00919   0.00305  -0.0051  0.0795  1.0000  -2.2838   0.0000   0.0000   0.0000   0.2558
   4.750   0.5494   0.00952   0.00330  -0.0044  0.0630  1.0000  -2.4674   0.0000   0.0000   0.0000   0.2539
   5.000   0.5734   0.00987   0.00358  -0.0037  0.0519  1.0000  -2.6543   0.0000   0.0000   0.0000   0.2521
   5.250   0.5977   0.01018   0.00388  -0.0030  0.0442  1.0000  -2.8458   0.0000   0.0000   0.0000   0.2505
   5.500   0.6219   0.01052   0.00419  -0.0023  0.0386  1.0000  -3.0404   0.0000   0.0000   0.0000   0.2490
   5.750   0.6461   0.01090   0.00457  -0.0016  0.0344  1.0000  -3.2498   0.0000   0.0000   0.0000   0.2476
   6.000   0.6701   0.01135   0.00500  -0.0009  0.0309  1.0000  -3.4727   0.0000   0.0000   0.0000   0.2463
   6.250   0.6952   0.01164   0.00533  -0.0003  0.0282  1.0000  -3.7089   0.0000   0.0000   0.0000   0.2452
   6.500   0.7193   0.01214   0.00584   0.0003  0.0259  1.0000  -3.9402   0.0000   0.0000   0.0000   0.2441
   6.750   0.7443   0.01252   0.00625   0.0008  0.0241  1.0000  -4.1814   0.0000   0.0000   0.0000   0.2432
   7.000   0.7674   0.01322   0.00697   0.0015  0.0223  1.0000  -4.4106   0.0000   0.0000   0.0000   0.2421
   7.250   0.7925   0.01362   0.00744   0.0020  0.0212  1.0000  -4.6549   0.0000   0.0000   0.0000   0.2413
   7.500   0.8172   0.01407   0.00792   0.0025  0.0199  1.0000  -4.9090   0.0000   0.0000   0.0000   0.2405
   7.750   0.8397   0.01491   0.00877   0.0032  0.0185  1.0000  -5.1457   0.0000   0.0000   0.0000   0.2395
   8.000   0.8642   0.01540   0.00936   0.0038  0.0178  1.0000  -5.4212   0.0000   0.0000   0.0000   0.2387
   8.250   0.8883   0.01599   0.01002   0.0043  0.0169  1.0000  -5.7076   0.0000   0.0000   0.0000   0.2380
   8.500   0.9120   0.01659   0.01067   0.0049  0.0161  1.0000  -6.0042   0.0000   0.0000   0.0000   0.2372
   8.750   0.9343   0.01742   0.01154   0.0056  0.0154  1.0000  -6.2929   0.0000   0.0000   0.0000   0.2363
   9.000   0.9543   0.01874   0.01298   0.0066  0.0148  1.0000  -6.5352   0.0000   0.0000   0.0000   0.2351
   9.250   0.9770   0.01952   0.01389   0.0073  0.0144  1.0000  -6.8190   0.0000   0.0000   0.0000   0.2343
   9.500   0.9989   0.02043   0.01493   0.0080  0.0139  1.0000  -7.0989   0.0000   0.0000   0.0000   0.2334
   9.750   1.0207   0.02127   0.01588   0.0087  0.0133  1.0000  -7.3961   0.0000   0.0000   0.0000   0.2326
  10.000   1.0424   0.02200   0.01668   0.0093  0.0128  1.0000  -7.7154   0.0000   0.0000   0.0000   0.2319
  10.250   1.0627   0.02294   0.01768   0.0101  0.0124  1.0000  -8.0281   0.0000   0.0000   0.0000   0.2310
  10.500   1.0740   0.02555   0.02051   0.0117  0.0119  1.0000  -8.1800   0.0000   0.0000   0.0000   0.2294
  10.750   1.0922   0.02667   0.02183   0.0127  0.0117  1.0000  -8.4434   0.0000   0.0000   0.0000   0.2283
  11.000   1.1076   0.02818   0.02356   0.0139  0.0114  1.0000  -8.6693   0.0000   0.0000   0.0000   0.2271
  11.250   1.1198   0.03000   0.02563   0.0153  0.0112  1.0000  -8.8617   0.0000   0.0000   0.0000   0.2256
  11.500   1.1287   0.03208   0.02795   0.0169  0.0109  1.0000  -9.0244   0.0000   0.0000   0.0000   0.2240
  11.750   1.1338   0.03436   0.03048   0.0187  0.0107  1.0000  -9.1573   0.0000   0.0000   0.0000   0.2222
  12.000   1.1336   0.03679   0.03315   0.0207  0.0106  1.0000  -9.2536   0.0000   0.0000   0.0000   0.2201
  12.250   1.1257   0.03935   0.03591   0.0233  0.0105  1.0000  -9.2985   0.0000   0.0000   0.0000   0.2173
  12.500   1.1141   0.04258   0.03936   0.0245  0.0104  1.0000  -9.3149   0.0000   0.0000   0.0000   0.2156
  12.750   1.0982   0.04700   0.04401   0.0235  0.0103  1.0000  -9.2636   0.0000   0.0000   0.0000   0.2157
  13.000   1.0761   0.05363   0.05089   0.0193  0.0104  1.0000  -9.0960   0.0000   0.0000   0.0000   0.2187
  13.250   1.0423   0.06453   0.06209   0.0102  0.0105  1.0000  -8.7021   0.0000   0.0000   0.0000   0.2264
  13.500   0.9897   0.08189   0.07974  -0.0034  0.0108  1.0000  -7.9390   0.0000   0.0000   0.0000   0.2393
  13.750   0.6959   0.10972   0.10787  -0.0056  0.0128  1.0000  -4.9273   0.0000   0.0000   0.0000   0.2462
  14.000   0.7058   0.11087   0.10901  -0.0059  0.0126  1.0000  -5.1670   0.0000   0.0000   0.0000   0.2461
  14.250   0.7157   0.11186   0.10998  -0.0061  0.0123  1.0000  -5.4150   0.0000   0.0000   0.0000   0.2458


