xflr5 v6.61

 Calculated polar for: NACA 0009

 1 1 Reynolds number fixed          Mach number fixed         

 xtrf =   1.000 (top)        1.000 (bottom)
 Mach =   0.000     Re =     0.640 e 6     Ncrit =   9.000

  alpha     CL        CD       CDp       Cm    Top Xtr Bot Xtr   Cpmin    Chinge    XCp    
 ------- -------- --------- --------- -------- ------- ------- -------- --------- ---------
 -10.000  -1.0351   0.02362   0.01835  -0.0103  1.0000  0.0134  -7.5474   0.0000   0.0000   0.0000   0.2309
  -9.750  -1.0145   0.02265   0.01724  -0.0095  1.0000  0.0140  -7.2644   0.0000   0.0000   0.0000   0.2318
  -9.500  -0.9936   0.02162   0.01604  -0.0087  1.0000  0.0145  -6.9979   0.0000   0.0000   0.0000   0.2327
  -9.250  -0.9717   0.02071   0.01497  -0.0079  1.0000  0.0149  -6.7273   0.0000   0.0000   0.0000   0.2336
  -9.000  -0.9533   0.01901   0.01313  -0.0068  1.0000  0.0155  -6.5089   0.0000   0.0000   0.0000   0.2349
  -8.750  -0.9313   0.01813   0.01220  -0.0061  1.0000  0.0161  -6.2204   0.0000   0.0000   0.0000   0.2357
  -8.500  -0.9082   0.01742   0.01144  -0.0055  1.0000  0.0168  -5.9293   0.0000   0.0000   0.0000   0.2365
  -8.250  -0.8848   0.01673   0.01066  -0.0049  1.0000  0.0176  -5.6492   0.0000   0.0000   0.0000   0.2373
  -8.000  -0.8606   0.01616   0.00998  -0.0043  1.0000  0.0184  -5.3680   0.0000   0.0000   0.0000   0.2381
  -7.750  -0.8390   0.01515   0.00894  -0.0035  1.0000  0.0195  -5.1189   0.0000   0.0000   0.0000   0.2392
  -7.500  -0.8146   0.01467   0.00843  -0.0030  1.0000  0.0207  -4.8609   0.0000   0.0000   0.0000   0.2400
  -7.250  -0.7899   0.01419   0.00788  -0.0024  1.0000  0.0220  -4.6187   0.0000   0.0000   0.0000   0.2408
  -7.000  -0.7671   0.01341   0.00707  -0.0017  1.0000  0.0234  -4.3958   0.0000   0.0000   0.0000   0.2419
  -6.750  -0.7425   0.01296   0.00659  -0.0011  1.0000  0.0250  -4.1531   0.0000   0.0000   0.0000   0.2428
  -6.500  -0.7181   0.01247   0.00605  -0.0005  1.0000  0.0269  -3.9230   0.0000   0.0000   0.0000   0.2438
  -6.250  -0.6937   0.01202   0.00560   0.0001  1.0000  0.0294  -3.6869   0.0000   0.0000   0.0000   0.2448
  -6.000  -0.6695   0.01157   0.00512   0.0007  1.0000  0.0323  -3.4615   0.0000   0.0000   0.0000   0.2460
  -5.750  -0.6448   0.01124   0.00477   0.0013  1.0000  0.0355  -3.2350   0.0000   0.0000   0.0000   0.2472
  -5.500  -0.6208   0.01082   0.00437   0.0020  1.0000  0.0400  -3.0283   0.0000   0.0000   0.0000   0.2486
  -5.250  -0.5966   0.01047   0.00403   0.0027  1.0000  0.0460  -2.8356   0.0000   0.0000   0.0000   0.2501
  -5.000  -0.5726   0.01008   0.00369   0.0035  1.0000  0.0541  -2.6470   0.0000   0.0000   0.0000   0.2518
  -4.750  -0.5486   0.00974   0.00340   0.0042  1.0000  0.0658  -2.4609   0.0000   0.0000   0.0000   0.2535
  -4.500  -0.5248   0.00938   0.00313   0.0049  1.0000  0.0839  -2.2782   0.0000   0.0000   0.0000   0.2554
  -4.250  -0.5012   0.00901   0.00290   0.0056  1.0000  0.1099  -2.0995   0.0000   0.0000   0.0000   0.2574
  -3.750  -0.4540   0.00826   0.00249   0.0070  1.0000  0.1872  -1.7856   0.0000   0.0000   0.0000   0.2619
  -3.500  -0.4303   0.00790   0.00234   0.0076  1.0000  0.2356  -1.6347   0.0000   0.0000   0.0000   0.2644
  -3.250  -0.4062   0.00756   0.00221   0.0082  1.0000  0.2870  -1.4875   0.0000   0.0000   0.0000   0.2669
  -3.000  -0.3819   0.00725   0.00211   0.0087  1.0000  0.3396  -1.3566   0.0000   0.0000   0.0000   0.2697
  -2.750  -0.3500   0.00693   0.00201   0.0076  0.9985  0.3983  -1.2106   0.0000   0.0000   0.0000   0.2686
  -2.500  -0.3130   0.00660   0.00191   0.0054  0.9954  0.4588  -1.0663   0.0000   0.0000   0.0000   0.2643
  -2.250  -0.2758   0.00630   0.00182   0.0032  0.9923  0.5172  -0.9321   0.0000   0.0000   0.0000   0.2587
  -2.000  -0.2390   0.00602   0.00174   0.0012  0.9883  0.5728  -0.8134   0.0000   0.0000   0.0000   0.2521
  -1.750  -0.2025   0.00575   0.00167  -0.0007  0.9839  0.6259  -0.7076   0.0000   0.0000   0.0000   0.2436
  -1.500  -0.1667   0.00550   0.00161  -0.0024  0.9786  0.6752  -0.6156   0.0000   0.0000   0.0000   0.2329
  -1.250  -0.1338   0.00529   0.00156  -0.0033  0.9707  0.7200  -0.5385   0.0000   0.0000   0.0000   0.2224
  -1.000  -0.1035   0.00511   0.00153  -0.0036  0.9597  0.7606  -0.4748   0.0000   0.0000   0.0000   0.2125
  -0.750  -0.0751   0.00496   0.00150  -0.0033  0.9464  0.7973  -0.4218   0.0000   0.0000   0.0000   0.2027
  -0.500  -0.0492   0.00485   0.00148  -0.0025  0.9292  0.8300  -0.3786   0.0000   0.0000   0.0000   0.1972
  -0.250  -0.0244   0.00478   0.00147  -0.0013  0.9092  0.8596  -0.3421   0.0000   0.0000   0.0000   0.1943
   0.000   0.0000   0.00476   0.00147  -0.0000  0.8861  0.8861  -0.3107   0.0000   0.0000   0.0000   0.5088
   0.250   0.0244   0.00478   0.00147   0.0013  0.8596  0.9092  -0.3421   0.0000   0.0000   0.0000   0.1942
   0.500   0.0492   0.00485   0.00148   0.0025  0.8301  0.9292  -0.3786   0.0000   0.0000   0.0000   0.1972
   0.750   0.0751   0.00496   0.00150   0.0033  0.7973  0.9464  -0.4217   0.0000   0.0000   0.0000   0.2027
   1.000   0.1035   0.00511   0.00153   0.0036  0.7606  0.9597  -0.4748   0.0000   0.0000   0.0000   0.2125
   1.250   0.1338   0.00529   0.00156   0.0033  0.7200  0.9707  -0.5385   0.0000   0.0000   0.0000   0.2224
   1.500   0.1667   0.00550   0.00161   0.0024  0.6752  0.9786  -0.6156   0.0000   0.0000   0.0000   0.2329
   1.750   0.2025   0.00575   0.00167   0.0007  0.6258  0.9839  -0.7076   0.0000   0.0000   0.0000   0.2436
   2.000   0.2390   0.00602   0.00174  -0.0012  0.5728  0.9883  -0.8134   0.0000   0.0000   0.0000   0.2521
   2.250   0.2758   0.00630   0.00182  -0.0032  0.5172  0.9923  -0.9321   0.0000   0.0000   0.0000   0.2587
   2.500   0.3130   0.00660   0.00191  -0.0054  0.4588  0.9954  -1.0663   0.0000   0.0000   0.0000   0.2643
   2.750   0.3500   0.00693   0.00201  -0.0076  0.3983  0.9985  -1.2106   0.0000   0.0000   0.0000   0.2686
   3.000   0.3818   0.00725   0.00211  -0.0087  0.3397  1.0000  -1.3565   0.0000   0.0000   0.0000   0.2696
   3.250   0.4062   0.00756   0.00220  -0.0082  0.2871  1.0000  -1.4874   0.0000   0.0000   0.0000   0.2669
   3.500   0.4302   0.00790   0.00234  -0.0076  0.2356  1.0000  -1.6346   0.0000   0.0000   0.0000   0.2643
   3.750   0.4540   0.00826   0.00249  -0.0070  0.1872  1.0000  -1.7855   0.0000   0.0000   0.0000   0.2619
   4.000   0.4776   0.00864   0.00268  -0.0063  0.1447  1.0000  -1.9393   0.0000   0.0000   0.0000   0.2596
   4.250   0.5011   0.00901   0.00289  -0.0056  0.1099  1.0000  -2.0994   0.0000   0.0000   0.0000   0.2574
   4.500   0.5248   0.00938   0.00313  -0.0049  0.0840  1.0000  -2.2781   0.0000   0.0000   0.0000   0.2554
   4.750   0.5486   0.00974   0.00339  -0.0042  0.0658  1.0000  -2.4607   0.0000   0.0000   0.0000   0.2535
   5.000   0.5726   0.01008   0.00369  -0.0035  0.0541  1.0000  -2.6468   0.0000   0.0000   0.0000   0.2517
   5.250   0.5966   0.01047   0.00403  -0.0027  0.0460  1.0000  -2.8355   0.0000   0.0000   0.0000   0.2501
   5.500   0.6208   0.01082   0.00437  -0.0020  0.0400  1.0000  -3.0282   0.0000   0.0000   0.0000   0.2486
   5.750   0.6448   0.01124   0.00477  -0.0013  0.0355  1.0000  -3.2349   0.0000   0.0000   0.0000   0.2472
   6.000   0.6695   0.01157   0.00512  -0.0007  0.0323  1.0000  -3.4614   0.0000   0.0000   0.0000   0.2460
   6.250   0.6937   0.01202   0.00560  -0.0001  0.0294  1.0000  -3.6869   0.0000   0.0000   0.0000   0.2448
   6.500   0.7181   0.01247   0.00605   0.0005  0.0269  1.0000  -3.9229   0.0000   0.0000   0.0000   0.2438
   6.750   0.7425   0.01296   0.00659   0.0011  0.0250  1.0000  -4.1531   0.0000   0.0000   0.0000   0.2428
   7.000   0.7671   0.01341   0.00707   0.0017  0.0234  1.0000  -4.3958   0.0000   0.0000   0.0000   0.2419
   7.250   0.7899   0.01419   0.00788   0.0024  0.0220  1.0000  -4.6187   0.0000   0.0000   0.0000   0.2408
   7.500   0.8146   0.01467   0.00843   0.0030  0.0207  1.0000  -4.8610   0.0000   0.0000   0.0000   0.2400
   7.750   0.8390   0.01515   0.00894   0.0034  0.0195  1.0000  -5.1190   0.0000   0.0000   0.0000   0.2392
   8.000   0.8606   0.01616   0.00998   0.0043  0.0184  1.0000  -5.3681   0.0000   0.0000   0.0000   0.2381
   8.250   0.8848   0.01673   0.01066   0.0049  0.0176  1.0000  -5.6493   0.0000   0.0000   0.0000   0.2374
   8.500   0.9082   0.01742   0.01144   0.0055  0.0168  1.0000  -5.9296   0.0000   0.0000   0.0000   0.2365
   8.750   0.9314   0.01813   0.01220   0.0061  0.0161  1.0000  -6.2207   0.0000   0.0000   0.0000   0.2358
   9.000   0.9534   0.01901   0.01313   0.0068  0.0155  1.0000  -6.5092   0.0000   0.0000   0.0000   0.2349
   9.250   0.9717   0.02071   0.01497   0.0079  0.0149  1.0000  -6.7276   0.0000   0.0000   0.0000   0.2336
   9.500   0.9936   0.02162   0.01604   0.0087  0.0145  1.0000  -6.9983   0.0000   0.0000   0.0000   0.2327
   9.750   1.0146   0.02265   0.01724   0.0095  0.0140  1.0000  -7.2649   0.0000   0.0000   0.0000   0.2318
  10.000   1.0352   0.02362   0.01835   0.0103  0.0134  1.0000  -7.5479   0.0000   0.0000   0.0000   0.2309
  10.250   1.0555   0.02453   0.01936   0.0111  0.0129  1.0000  -7.8479   0.0000   0.0000   0.0000   0.2301
  10.500   1.0746   0.02554   0.02046   0.0119  0.0125  1.0000  -8.1478   0.0000   0.0000   0.0000   0.2292
  10.750   1.0899   0.02719   0.02224   0.0130  0.0122  1.0000  -8.3906   0.0000   0.0000   0.0000   0.2280
  11.000   1.0948   0.03052   0.02590   0.0150  0.0119  1.0000  -8.4585   0.0000   0.0000   0.0000   0.2260
  11.250   1.1062   0.03226   0.02790   0.0164  0.0117  1.0000  -8.6447   0.0000   0.0000   0.0000   0.2245
  11.500   1.1121   0.03455   0.03048   0.0181  0.0115  1.0000  -8.7691   0.0000   0.0000   0.0000   0.2227
  11.750   1.1116   0.03730   0.03354   0.0201  0.0114  1.0000  -8.8306   0.0000   0.0000   0.0000   0.2206
  12.000   1.1012   0.04021   0.03671   0.0229  0.0113  1.0000  -8.8251   0.0000   0.0000   0.0000   0.2176
  12.250   1.0856   0.04380   0.04056   0.0244  0.0112  1.0000  -8.7707   0.0000   0.0000   0.0000   0.2156
  12.500   1.0669   0.04857   0.04557   0.0233  0.0112  1.0000  -8.6769   0.0000   0.0000   0.0000   0.2158
  12.750   1.0457   0.05509   0.05233   0.0189  0.0112  1.0000  -8.5230   0.0000   0.0000   0.0000   0.2190
  13.000   1.0218   0.06393   0.06139   0.0115  0.0113  1.0000  -8.2860   0.0000   0.0000   0.0000   0.2254
  13.250   0.9934   0.07519   0.07284   0.0022  0.0115  1.0000  -7.9390   0.0000   0.0000   0.0000   0.2340
  13.500   0.9567   0.08882   0.08661  -0.0073  0.0117  1.0000  -7.4458   0.0000   0.0000   0.0000   0.2437
  18.750   0.8495   0.24062   0.23848  -0.0802  0.0105  1.0000  -2.0191   0.0000   0.0000   0.0000   0.3281
  19.000   0.8575   0.24409   0.24195  -0.0823  0.0102  1.0000  -2.0375   0.0000   0.0000   0.0000   0.3294
  19.250   0.8656   0.24748   0.24535  -0.0844  0.0099  1.0000  -2.0674   0.0000   0.0000   0.0000   0.3305
  19.500   0.8738   0.25063   0.24850  -0.0864  0.0097  1.0000  -2.1148   0.0000   0.0000   0.0000   0.3315
  19.750   0.8820   0.25355   0.25142  -0.0882  0.0095  1.0000  -2.1864   0.0000   0.0000   0.0000   0.3322
  20.000   0.8902   0.25624   0.25412  -0.0898  0.0093  1.0000  -2.2897   0.0000   0.0000   0.0000   0.3326


