xflr5 v6.61

 Calculated polar for: NACA 0012

 1 1 Reynolds number fixed          Mach number fixed         

 xtrf =   1.000 (top)        1.000 (bottom)
 Mach =   0.000     Re =     0.660 e 6     Ncrit =   9.000

  alpha     CL        CD       CDp       Cm    Top Xtr Bot Xtr   Cpmin    Chinge    XCp    
 ------- -------- --------- --------- -------- ------- ------- -------- --------- ---------
 -10.000  -1.0608   0.01743   0.01118  -0.0082  1.0000  0.0297  -5.3450   0.0000   0.0000   0.0000   0.2311
  -9.750  -1.0388   0.01700   0.01067  -0.0073  1.0000  0.0307  -5.1478   0.0000   0.0000   0.0000   0.2322
  -9.500  -1.0204   0.01624   0.00990  -0.0059  1.0000  0.0322  -4.9714   0.0000   0.0000   0.0000   0.2337
  -9.250  -0.9991   0.01578   0.00942  -0.0049  1.0000  0.0337  -4.7783   0.0000   0.0000   0.0000   0.2349
  -9.000  -0.9772   0.01539   0.00898  -0.0039  1.0000  0.0353  -4.5871   0.0000   0.0000   0.0000   0.2362
  -8.750  -0.9576   0.01482   0.00841  -0.0025  1.0000  0.0373  -4.4089   0.0000   0.0000   0.0000   0.2378
  -8.500  -0.9362   0.01445   0.00802  -0.0014  1.0000  0.0394  -4.2224   0.0000   0.0000   0.0000   0.2392
  -8.250  -0.9155   0.01402   0.00757  -0.0001  1.0000  0.0417  -4.0443   0.0000   0.0000   0.0000   0.2409
  -8.000  -0.8947   0.01362   0.00717   0.0012  1.0000  0.0444  -3.8667   0.0000   0.0000   0.0000   0.2425
  -7.750  -0.8738   0.01324   0.00677   0.0024  1.0000  0.0473  -3.7043   0.0000   0.0000   0.0000   0.2443
  -7.500  -0.8530   0.01288   0.00643   0.0037  1.0000  0.0508  -3.5448   0.0000   0.0000   0.0000   0.2461
  -7.250  -0.8324   0.01252   0.00607   0.0051  1.0000  0.0548  -3.3891   0.0000   0.0000   0.0000   0.2481
  -7.000  -0.8115   0.01219   0.00576   0.0064  1.0000  0.0596  -3.2344   0.0000   0.0000   0.0000   0.2501
  -6.750  -0.7905   0.01189   0.00546   0.0077  1.0000  0.0650  -3.0817   0.0000   0.0000   0.0000   0.2522
  -6.500  -0.7697   0.01158   0.00518   0.0089  1.0000  0.0715  -2.9315   0.0000   0.0000   0.0000   0.2543
  -6.250  -0.7488   0.01126   0.00491   0.0102  1.0000  0.0796  -2.7836   0.0000   0.0000   0.0000   0.2566
  -6.000  -0.7277   0.01096   0.00467   0.0114  1.0000  0.0894  -2.6458   0.0000   0.0000   0.0000   0.2589
  -5.750  -0.7027   0.01067   0.00443   0.0118  0.9995  0.1018  -2.5025   0.0000   0.0000   0.0000   0.2602
  -5.500  -0.6667   0.01031   0.00417   0.0098  0.9976  0.1201  -2.3327   0.0000   0.0000   0.0000   0.2583
  -5.250  -0.6311   0.00995   0.00392   0.0079  0.9952  0.1421  -2.1674   0.0000   0.0000   0.0000   0.2563
  -5.000  -0.5948   0.00959   0.00369   0.0059  0.9932  0.1676  -2.0101   0.0000   0.0000   0.0000   0.2538
  -4.750  -0.5597   0.00924   0.00347   0.0042  0.9901  0.1959  -1.8652   0.0000   0.0000   0.0000   0.2515
  -4.500  -0.5232   0.00890   0.00327   0.0021  0.9878  0.2272  -1.7205   0.0000   0.0000   0.0000   0.2482
  -4.250  -0.4881   0.00856   0.00308   0.0004  0.9844  0.2597  -1.5881   0.0000   0.0000   0.0000   0.2451
  -4.000  -0.4515   0.00823   0.00290  -0.0016  0.9816  0.2934  -1.4602   0.0000   0.0000   0.0000   0.2408
  -3.750  -0.4156   0.00793   0.00274  -0.0034  0.9783  0.3269  -1.3399   0.0000   0.0000   0.0000   0.2362
  -3.500  -0.3812   0.00765   0.00258  -0.0049  0.9738  0.3602  -1.2304   0.0000   0.0000   0.0000   0.2318
  -3.250  -0.3494   0.00738   0.00244  -0.0057  0.9674  0.3917  -1.1318   0.0000   0.0000   0.0000   0.2284
  -3.000  -0.3190   0.00714   0.00231  -0.0061  0.9599  0.4228  -1.0406   0.0000   0.0000   0.0000   0.2255
  -2.750  -0.2903   0.00692   0.00220  -0.0061  0.9507  0.4528  -0.9596   0.0000   0.0000   0.0000   0.2236
  -2.500  -0.2629   0.00672   0.00209  -0.0058  0.9398  0.4821  -0.8854   0.0000   0.0000   0.0000   0.2226
  -2.250  -0.2362   0.00654   0.00199  -0.0054  0.9276  0.5108  -0.8174   0.0000   0.0000   0.0000   0.2222
  -2.000  -0.2100   0.00638   0.00190  -0.0048  0.9143  0.5392  -0.7550   0.0000   0.0000   0.0000   0.2222
  -1.750  -0.1839   0.00623   0.00182  -0.0041  0.8988  0.5672  -0.6979   0.0000   0.0000   0.0000   0.2225
  -1.500  -0.1578   0.00611   0.00175  -0.0035  0.8820  0.5949  -0.6454   0.0000   0.0000   0.0000   0.2228
  -1.250  -0.1316   0.00600   0.00169  -0.0029  0.8641  0.6223  -0.5977   0.0000   0.0000   0.0000   0.2231
  -1.000  -0.1054   0.00592   0.00164  -0.0023  0.8442  0.6494  -0.5540   0.0000   0.0000   0.0000   0.2233
  -0.750  -0.0790   0.00585   0.00160  -0.0017  0.8234  0.6762  -0.5143   0.0000   0.0000   0.0000   0.2234
  -0.500  -0.0527   0.00581   0.00157  -0.0011  0.8012  0.7027  -0.4778   0.0000   0.0000   0.0000   0.2236
  -0.250  -0.0263   0.00578   0.00155  -0.0006  0.7777  0.7285  -0.4444   0.0000   0.0000   0.0000   0.2233
   0.000  -0.0000   0.00577   0.00155   0.0000  0.7535  0.7535  -0.4137   0.0000   0.0000   0.0000   0.4741
   0.250   0.0263   0.00578   0.00155   0.0006  0.7285  0.7777  -0.4444   0.0000   0.0000   0.0000   0.2233
   0.750   0.0790   0.00585   0.00160   0.0017  0.6762  0.8234  -0.5143   0.0000   0.0000   0.0000   0.2234
   1.000   0.1054   0.00592   0.00164   0.0023  0.6494  0.8442  -0.5540   0.0000   0.0000   0.0000   0.2233
   1.250   0.1316   0.00600   0.00169   0.0029  0.6223  0.8641  -0.5977   0.0000   0.0000   0.0000   0.2231
   1.500   0.1578   0.00611   0.00175   0.0035  0.5949  0.8820  -0.6454   0.0000   0.0000   0.0000   0.2228
   1.750   0.1839   0.00623   0.00182   0.0041  0.5672  0.8988  -0.6979   0.0000   0.0000   0.0000   0.2225
   2.000   0.2100   0.00638   0.00190   0.0048  0.5392  0.9143  -0.7550   0.0000   0.0000   0.0000   0.2222
   2.250   0.2363   0.00654   0.00199   0.0054  0.5108  0.9276  -0.8174   0.0000   0.0000   0.0000   0.2222
   2.500   0.2629   0.00672   0.00209   0.0058  0.4820  0.9398  -0.8855   0.0000   0.0000   0.0000   0.2226
   2.750   0.2903   0.00692   0.00220   0.0061  0.4528  0.9507  -0.9596   0.0000   0.0000   0.0000   0.2236
   3.000   0.3190   0.00714   0.00231   0.0061  0.4228  0.9599  -1.0406   0.0000   0.0000   0.0000   0.2255
   3.250   0.3494   0.00738   0.00244   0.0057  0.3917  0.9674  -1.1318   0.0000   0.0000   0.0000   0.2284
   3.500   0.3812   0.00765   0.00258   0.0049  0.3602  0.9738  -1.2304   0.0000   0.0000   0.0000   0.2318
   3.750   0.4156   0.00793   0.00274   0.0034  0.3269  0.9783  -1.3398   0.0000   0.0000   0.0000   0.2362
   4.000   0.4515   0.00823   0.00290   0.0016  0.2934  0.9816  -1.4602   0.0000   0.0000   0.0000   0.2408
   4.250   0.4881   0.00856   0.00308  -0.0004  0.2597  0.9844  -1.5881   0.0000   0.0000   0.0000   0.2451
   4.500   0.5232   0.00890   0.00327  -0.0021  0.2272  0.9878  -1.7205   0.0000   0.0000   0.0000   0.2482
   4.750   0.5597   0.00924   0.00347  -0.0042  0.1958  0.9901  -1.8652   0.0000   0.0000   0.0000   0.2515
   5.000   0.5949   0.00959   0.00369  -0.0059  0.1675  0.9932  -2.0101   0.0000   0.0000   0.0000   0.2538
   5.250   0.6311   0.00995   0.00392  -0.0079  0.1421  0.9953  -2.1674   0.0000   0.0000   0.0000   0.2563
   5.500   0.6668   0.01031   0.00417  -0.0098  0.1201  0.9976  -2.3328   0.0000   0.0000   0.0000   0.2583
   5.750   0.7027   0.01067   0.00442  -0.0118  0.1018  0.9995  -2.5026   0.0000   0.0000   0.0000   0.2602
   6.000   0.7276   0.01096   0.00467  -0.0114  0.0895  1.0000  -2.6456   0.0000   0.0000   0.0000   0.2588
   6.250   0.7487   0.01126   0.00491  -0.0102  0.0796  1.0000  -2.7834   0.0000   0.0000   0.0000   0.2566
   6.500   0.7696   0.01158   0.00518  -0.0089  0.0715  1.0000  -2.9313   0.0000   0.0000   0.0000   0.2543
   6.750   0.7905   0.01189   0.00546  -0.0076  0.0650  1.0000  -3.0814   0.0000   0.0000   0.0000   0.2522
   7.000   0.8114   0.01219   0.00576  -0.0064  0.0596  1.0000  -3.2342   0.0000   0.0000   0.0000   0.2501
   7.250   0.8323   0.01252   0.00607  -0.0051  0.0548  1.0000  -3.3889   0.0000   0.0000   0.0000   0.2481
   7.500   0.8529   0.01288   0.00643  -0.0037  0.0508  1.0000  -3.5446   0.0000   0.0000   0.0000   0.2461
   7.750   0.8738   0.01324   0.00677  -0.0024  0.0473  1.0000  -3.7041   0.0000   0.0000   0.0000   0.2443
   8.000   0.8947   0.01362   0.00717  -0.0011  0.0444  1.0000  -3.8665   0.0000   0.0000   0.0000   0.2425
   8.250   0.9154   0.01402   0.00757   0.0001  0.0417  1.0000  -4.0442   0.0000   0.0000   0.0000   0.2408
   8.500   0.9362   0.01445   0.00802   0.0014  0.0394  1.0000  -4.2223   0.0000   0.0000   0.0000   0.2392
   8.750   0.9576   0.01482   0.00841   0.0025  0.0373  1.0000  -4.4088   0.0000   0.0000   0.0000   0.2378
   9.000   0.9772   0.01539   0.00898   0.0039  0.0353  1.0000  -4.5871   0.0000   0.0000   0.0000   0.2362
   9.250   0.9991   0.01578   0.00942   0.0049  0.0337  1.0000  -4.7783   0.0000   0.0000   0.0000   0.2349
   9.500   1.0205   0.01624   0.00990   0.0059  0.0322  1.0000  -4.9715   0.0000   0.0000   0.0000   0.2337
   9.750   1.0389   0.01700   0.01067   0.0073  0.0307  1.0000  -5.1480   0.0000   0.0000   0.0000   0.2322
  10.000   1.0609   0.01743   0.01118   0.0082  0.0297  1.0000  -5.3453   0.0000   0.0000   0.0000   0.2311
  10.250   1.0822   0.01793   0.01172   0.0092  0.0285  1.0000  -5.5444   0.0000   0.0000   0.0000   0.2301
  10.500   1.1025   0.01850   0.01230   0.0102  0.0273  1.0000  -5.7445   0.0000   0.0000   0.0000   0.2290
  10.750   1.1189   0.01942   0.01326   0.0117  0.0262  1.0000  -5.9314   0.0000   0.0000   0.0000   0.2274
  11.000   1.1397   0.01993   0.01386   0.0127  0.0255  1.0000  -6.1518   0.0000   0.0000   0.0000   0.2265
  11.250   1.1590   0.02055   0.01454   0.0138  0.0246  1.0000  -6.3668   0.0000   0.0000   0.0000   0.2253
  11.500   1.1775   0.02121   0.01524   0.0149  0.0239  1.0000  -6.5826   0.0000   0.0000   0.0000   0.2242
  11.750   1.1944   0.02195   0.01603   0.0163  0.0232  1.0000  -6.7934   0.0000   0.0000   0.0000   0.2229
  12.000   1.2051   0.02315   0.01727   0.0183  0.0225  1.0000  -6.9640   0.0000   0.0000   0.0000   0.2209
  12.250   1.2169   0.02412   0.01833   0.0203  0.0220  1.0000  -7.1421   0.0000   0.0000   0.0000   0.2191
  12.500   1.2293   0.02491   0.01922   0.0222  0.0216  1.0000  -7.3295   0.0000   0.0000   0.0000   0.2173
  12.750   1.2401   0.02583   0.02023   0.0242  0.0211  1.0000  -7.5089   0.0000   0.0000   0.0000   0.2155
  13.000   1.2501   0.02685   0.02134   0.0260  0.0207  1.0000  -7.6855   0.0000   0.0000   0.0000   0.2138
  13.250   1.2596   0.02793   0.02251   0.0275  0.0202  1.0000  -7.8636   0.0000   0.0000   0.0000   0.2123
  13.500   1.2686   0.02912   0.02376   0.0289  0.0198  1.0000  -8.0411   0.0000   0.0000   0.0000   0.2109
  13.750   1.2759   0.03051   0.02522   0.0301  0.0194  1.0000  -8.2096   0.0000   0.0000   0.0000   0.2096
  14.000   1.2792   0.03235   0.02713   0.0312  0.0190  1.0000  -8.3482   0.0000   0.0000   0.0000   0.2084
  14.250   1.2748   0.03510   0.02997   0.0322  0.0186  1.0000  -8.4209   0.0000   0.0000   0.0000   0.2070
  14.500   1.2763   0.03746   0.03247   0.0324  0.0183  1.0000  -8.5340   0.0000   0.0000   0.0000   0.2063
  14.750   1.2797   0.03980   0.03494   0.0323  0.0182  1.0000  -8.6606   0.0000   0.0000   0.0000   0.2060
  15.000   1.2809   0.04252   0.03779   0.0318  0.0179  1.0000  -8.7695   0.0000   0.0000   0.0000   0.2059
  15.250   1.2804   0.04563   0.04103   0.0309  0.0177  1.0000  -8.8615   0.0000   0.0000   0.0000   0.2060
  15.500   1.2777   0.04914   0.04468   0.0296  0.0175  1.0000  -8.9350   0.0000   0.0000   0.0000   0.2064
  15.750   1.2733   0.05305   0.04873   0.0279  0.0173  1.0000  -8.9909   0.0000   0.0000   0.0000   0.2071
  16.000   1.2668   0.05737   0.05319   0.0260  0.0172  1.0000  -9.0271   0.0000   0.0000   0.0000   0.2080
  16.250   1.2585   0.06210   0.05805   0.0236  0.0170  1.0000  -9.0484   0.0000   0.0000   0.0000   0.2091
  16.500   1.2481   0.06723   0.06331   0.0211  0.0169  1.0000  -9.0525   0.0000   0.0000   0.0000   0.2104
  16.750   1.2359   0.07277   0.06898   0.0182  0.0168  1.0000  -9.0347   0.0000   0.0000   0.0000   0.2120
  17.000   1.2222   0.07873   0.07507   0.0151  0.0167  1.0000  -8.9957   0.0000   0.0000   0.0000   0.2138
  17.250   1.2067   0.08510   0.08157   0.0117  0.0166  1.0000  -8.9336   0.0000   0.0000   0.0000   0.2159
  17.500   1.1899   0.09191   0.08851   0.0080  0.0165  1.0000  -8.8481   0.0000   0.0000   0.0000   0.2183
  17.750   1.1715   0.09914   0.09587   0.0041  0.0165  1.0000  -8.7369   0.0000   0.0000   0.0000   0.2210
  18.000   1.1515   0.10686   0.10372  -0.0001  0.0164  1.0000  -8.5963   0.0000   0.0000   0.0000   0.2241
  18.250   1.1293   0.11525   0.11226  -0.0048  0.0164  1.0000  -8.4160   0.0000   0.0000   0.0000   0.2277
  18.500   1.1034   0.12460   0.12176  -0.0100  0.0164  1.0000  -8.1734   0.0000   0.0000   0.0000   0.2321
  18.750   1.0688   0.13626   0.13360  -0.0167  0.0164  1.0000  -7.7926   0.0000   0.0000   0.0000   0.2383


