xflr5 v6.61

 Calculated polar for: NACA 0009

 1 1 Reynolds number fixed          Mach number fixed         

 xtrf =   1.000 (top)        1.000 (bottom)
 Mach =   0.000     Re =     0.460 e 6     Ncrit =   9.000

  alpha     CL        CD       CDp       Cm    Top Xtr Bot Xtr   Cpmin    Chinge    XCp    
 ------- -------- --------- --------- -------- ------- ------- -------- --------- ---------
 -10.000  -1.0099   0.03008   0.02500  -0.0135  1.0000  0.0163  -6.9293   0.0000   0.0000   0.0000   0.2277
  -9.750  -0.9935   0.02842   0.02313  -0.0124  1.0000  0.0169  -6.7226   0.0000   0.0000   0.0000   0.2289
  -9.500  -0.9772   0.02641   0.02083  -0.0111  1.0000  0.0174  -6.5579   0.0000   0.0000   0.0000   0.2302
  -9.250  -0.9589   0.02464   0.01876  -0.0100  1.0000  0.0179  -6.3773   0.0000   0.0000   0.0000   0.2315
  -9.000  -0.9384   0.02333   0.01717  -0.0090  1.0000  0.0184  -6.1648   0.0000   0.0000   0.0000   0.2326
  -8.750  -0.9195   0.02133   0.01504  -0.0080  1.0000  0.0191  -5.9621   0.0000   0.0000   0.0000   0.2337
  -8.500  -0.8974   0.02034   0.01401  -0.0073  1.0000  0.0198  -5.6921   0.0000   0.0000   0.0000   0.2345
  -8.250  -0.8747   0.01946   0.01303  -0.0066  1.0000  0.0208  -5.4302   0.0000   0.0000   0.0000   0.2353
  -8.000  -0.8511   0.01873   0.01215  -0.0060  1.0000  0.0219  -5.1706   0.0000   0.0000   0.0000   0.2361
  -7.750  -0.8295   0.01755   0.01090  -0.0051  1.0000  0.0231  -4.9318   0.0000   0.0000   0.0000   0.2372
  -7.500  -0.8061   0.01682   0.01016  -0.0045  1.0000  0.0243  -4.6998   0.0000   0.0000   0.0000   0.2380
  -7.250  -0.7824   0.01613   0.00937  -0.0038  1.0000  0.0258  -4.4831   0.0000   0.0000   0.0000   0.2390
  -7.000  -0.7599   0.01522   0.00842  -0.0030  1.0000  0.0273  -4.2775   0.0000   0.0000   0.0000   0.2402
  -6.750  -0.7360   0.01465   0.00783  -0.0024  1.0000  0.0292  -4.0467   0.0000   0.0000   0.0000   0.2411
  -6.500  -0.7124   0.01402   0.00715  -0.0016  1.0000  0.0316  -3.8300   0.0000   0.0000   0.0000   0.2422
  -6.250  -0.6884   0.01349   0.00661  -0.0010  1.0000  0.0343  -3.6058   0.0000   0.0000   0.0000   0.2433
  -6.000  -0.6649   0.01287   0.00598  -0.0003  1.0000  0.0374  -3.3949   0.0000   0.0000   0.0000   0.2446
  -5.750  -0.6408   0.01241   0.00549   0.0004  1.0000  0.0414  -3.1804   0.0000   0.0000   0.0000   0.2458
  -5.500  -0.6168   0.01196   0.00504   0.0011  1.0000  0.0467  -2.9809   0.0000   0.0000   0.0000   0.2472
  -5.250  -0.5932   0.01147   0.00459   0.0019  1.0000  0.0535  -2.7974   0.0000   0.0000   0.0000   0.2487
  -5.000  -0.5693   0.01104   0.00419   0.0026  1.0000  0.0633  -2.6144   0.0000   0.0000   0.0000   0.2503
  -4.750  -0.5457   0.01060   0.00382   0.0034  1.0000  0.0784  -2.4342   0.0000   0.0000   0.0000   0.2521
  -4.500  -0.5222   0.01013   0.00349   0.0041  1.0000  0.1023  -2.2566   0.0000   0.0000   0.0000   0.2539
  -4.250  -0.4989   0.00965   0.00321   0.0048  1.0000  0.1391  -2.0816   0.0000   0.0000   0.0000   0.2559
  -4.000  -0.4756   0.00919   0.00295   0.0055  1.0000  0.1862  -1.9261   0.0000   0.0000   0.0000   0.2580
  -3.750  -0.4521   0.00875   0.00275   0.0062  1.0000  0.2399  -1.7738   0.0000   0.0000   0.0000   0.2602
  -3.500  -0.4285   0.00835   0.00258   0.0068  1.0000  0.2970  -1.6240   0.0000   0.0000   0.0000   0.2625
  -3.250  -0.4047   0.00799   0.00244   0.0074  1.0000  0.3542  -1.4794   0.0000   0.0000   0.0000   0.2651
  -3.000  -0.3806   0.00766   0.00234   0.0080  1.0000  0.4108  -1.3495   0.0000   0.0000   0.0000   0.2679
  -2.750  -0.3562   0.00738   0.00227   0.0085  1.0000  0.4662  -1.2221   0.0000   0.0000   0.0000   0.2710
  -2.500  -0.3317   0.00713   0.00223   0.0091  1.0000  0.5201  -1.1037   0.0000   0.0000   0.0000   0.2745
  -2.250  -0.3069   0.00691   0.00220   0.0095  1.0000  0.5732  -0.9930   0.0000   0.0000   0.0000   0.2784
  -2.000  -0.2763   0.00668   0.00219   0.0088  0.9985  0.6286  -0.8804   0.0000   0.0000   0.0000   0.2794
  -1.750  -0.2378   0.00643   0.00215   0.0065  0.9942  0.6854  -0.7642   0.0000   0.0000   0.0000   0.2749
  -1.500  -0.1999   0.00620   0.00212   0.0045  0.9893  0.7371  -0.6623   0.0000   0.0000   0.0000   0.2698
  -1.250  -0.1623   0.00601   0.00211   0.0026  0.9839  0.7834  -0.5732   0.0000   0.0000   0.0000   0.2633
  -1.000  -0.1247   0.00585   0.00209   0.0007  0.9783  0.8234  -0.4969   0.0000   0.0000   0.0000   0.2533
  -0.750  -0.0899   0.00573   0.00208  -0.0004  0.9702  0.8568  -0.4353   0.0000   0.0000   0.0000   0.2434
  -0.500  -0.0579   0.00565   0.00208  -0.0008  0.9592  0.8849  -0.3854   0.0000   0.0000   0.0000   0.2344
  -0.250  -0.0277   0.00561   0.00208  -0.0007  0.9461  0.9085  -0.3444   0.0000   0.0000   0.0000   0.2229
   0.000  -0.0000   0.00560   0.00208   0.0000  0.9286  0.9286  -0.3106   0.0000   0.0000   0.0000   0.4985
   0.250   0.0277   0.00561   0.00208   0.0007  0.9085  0.9461  -0.3444   0.0000   0.0000   0.0000   0.2229
   0.500   0.0579   0.00565   0.00208   0.0008  0.8849  0.9592  -0.3854   0.0000   0.0000   0.0000   0.2344
   0.750   0.0899   0.00573   0.00208   0.0004  0.8568  0.9702  -0.4353   0.0000   0.0000   0.0000   0.2434
   1.000   0.1247   0.00585   0.00209  -0.0007  0.8233  0.9783  -0.4969   0.0000   0.0000   0.0000   0.2533
   1.250   0.1623   0.00601   0.00211  -0.0026  0.7834  0.9839  -0.5732   0.0000   0.0000   0.0000   0.2633
   1.500   0.1999   0.00620   0.00212  -0.0045  0.7371  0.9893  -0.6623   0.0000   0.0000   0.0000   0.2698
   1.750   0.2378   0.00643   0.00215  -0.0065  0.6854  0.9942  -0.7642   0.0000   0.0000   0.0000   0.2749
   2.000   0.2763   0.00668   0.00219  -0.0088  0.6286  0.9985  -0.8804   0.0000   0.0000   0.0000   0.2794
   2.250   0.3068   0.00691   0.00220  -0.0095  0.5732  1.0000  -0.9929   0.0000   0.0000   0.0000   0.2784
   2.500   0.3317   0.00713   0.00223  -0.0091  0.5201  1.0000  -1.1036   0.0000   0.0000   0.0000   0.2744
   2.750   0.3562   0.00738   0.00227  -0.0085  0.4662  1.0000  -1.2220   0.0000   0.0000   0.0000   0.2710
   3.000   0.3805   0.00766   0.00234  -0.0080  0.4109  1.0000  -1.3494   0.0000   0.0000   0.0000   0.2679
   3.250   0.4046   0.00799   0.00244  -0.0074  0.3542  1.0000  -1.4794   0.0000   0.0000   0.0000   0.2651
   3.500   0.4285   0.00835   0.00258  -0.0068  0.2971  1.0000  -1.6239   0.0000   0.0000   0.0000   0.2625
   3.750   0.4521   0.00875   0.00275  -0.0062  0.2399  1.0000  -1.7737   0.0000   0.0000   0.0000   0.2602
   4.000   0.4755   0.00919   0.00295  -0.0055  0.1863  1.0000  -1.9260   0.0000   0.0000   0.0000   0.2579
   4.250   0.4988   0.00965   0.00321  -0.0048  0.1392  1.0000  -2.0815   0.0000   0.0000   0.0000   0.2559
   4.500   0.5222   0.01013   0.00349  -0.0041  0.1023  1.0000  -2.2565   0.0000   0.0000   0.0000   0.2539
   4.750   0.5456   0.01060   0.00382  -0.0034  0.0784  1.0000  -2.4341   0.0000   0.0000   0.0000   0.2521
   5.000   0.5693   0.01104   0.00419  -0.0026  0.0633  1.0000  -2.6143   0.0000   0.0000   0.0000   0.2503
   5.250   0.5931   0.01147   0.00458  -0.0019  0.0535  1.0000  -2.7973   0.0000   0.0000   0.0000   0.2487
   5.500   0.6168   0.01195   0.00504  -0.0011  0.0467  1.0000  -2.9809   0.0000   0.0000   0.0000   0.2472
   5.750   0.6408   0.01241   0.00549  -0.0004  0.0414  1.0000  -3.1803   0.0000   0.0000   0.0000   0.2458
   6.000   0.6649   0.01287   0.00598   0.0003  0.0374  1.0000  -3.3949   0.0000   0.0000   0.0000   0.2446
   6.250   0.6884   0.01349   0.00661   0.0010  0.0343  1.0000  -3.6057   0.0000   0.0000   0.0000   0.2433
   6.500   0.7124   0.01402   0.00715   0.0016  0.0316  1.0000  -3.8300   0.0000   0.0000   0.0000   0.2422
   6.750   0.7361   0.01464   0.00783   0.0024  0.0292  1.0000  -4.0467   0.0000   0.0000   0.0000   0.2411
   7.000   0.7599   0.01522   0.00842   0.0030  0.0273  1.0000  -4.2776   0.0000   0.0000   0.0000   0.2402
   7.250   0.7824   0.01613   0.00937   0.0038  0.0258  1.0000  -4.4832   0.0000   0.0000   0.0000   0.2390
   7.500   0.8061   0.01682   0.01016   0.0045  0.0243  1.0000  -4.6999   0.0000   0.0000   0.0000   0.2381
   7.750   0.8295   0.01755   0.01090   0.0051  0.0231  1.0000  -4.9319   0.0000   0.0000   0.0000   0.2372
   8.000   0.8511   0.01873   0.01215   0.0060  0.0219  1.0000  -5.1707   0.0000   0.0000   0.0000   0.2361
   8.250   0.8747   0.01946   0.01303   0.0066  0.0208  1.0000  -5.4304   0.0000   0.0000   0.0000   0.2353
   8.500   0.8975   0.02034   0.01401   0.0073  0.0198  1.0000  -5.6923   0.0000   0.0000   0.0000   0.2345
   8.750   0.9195   0.02133   0.01504   0.0080  0.0191  1.0000  -5.9623   0.0000   0.0000   0.0000   0.2337
   9.000   0.9385   0.02333   0.01717   0.0090  0.0184  1.0000  -6.1651   0.0000   0.0000   0.0000   0.2326
   9.250   0.9590   0.02464   0.01876   0.0100  0.0179  1.0000  -6.3776   0.0000   0.0000   0.0000   0.2315
   9.500   0.9773   0.02641   0.02084   0.0111  0.0174  1.0000  -6.5582   0.0000   0.0000   0.0000   0.2302
   9.750   0.9936   0.02842   0.02314   0.0124  0.0168  1.0000  -6.7230   0.0000   0.0000   0.0000   0.2289
  10.000   1.0100   0.03008   0.02500   0.0134  0.0163  1.0000  -6.9299   0.0000   0.0000   0.0000   0.2278
  10.250   1.0277   0.03122   0.02623   0.0143  0.0158  1.0000  -7.2019   0.0000   0.0000   0.0000   0.2269
  10.500   1.0420   0.03290   0.02800   0.0152  0.0153  1.0000  -7.4456   0.0000   0.0000   0.0000   0.2258
  10.750   1.0419   0.03690   0.03237   0.0172  0.0150  1.0000  -7.4553   0.0000   0.0000   0.0000   0.2237
  11.000   1.0408   0.04003   0.03592   0.0192  0.0148  1.0000  -7.4679   0.0000   0.0000   0.0000   0.2215
  11.250   1.0310   0.04381   0.04007   0.0214  0.0147  1.0000  -7.4095   0.0000   0.0000   0.0000   0.2189
  11.500   1.0125   0.04745   0.04399   0.0238  0.0147  1.0000  -7.3217   0.0000   0.0000   0.0000   0.2158
  11.750   0.9920   0.05193   0.04870   0.0237  0.0148  1.0000  -7.2135   0.0000   0.0000   0.0000   0.2151
  12.000   0.9712   0.05769   0.05467   0.0204  0.0148  1.0000  -7.0818   0.0000   0.0000   0.0000   0.2175
  12.250   0.9505   0.06504   0.06220   0.0145  0.0149  1.0000  -6.9171   0.0000   0.0000   0.0000   0.2228
  12.500   0.9294   0.07374   0.07102   0.0075  0.0150  1.0000  -6.7109   0.0000   0.0000   0.0000   0.2296
  15.250   0.5406   0.15791   0.15561  -0.0209  0.0227  1.0000  -1.7281   0.0000   0.0000   0.0000   0.2798
  15.500   0.5506   0.15967   0.15737  -0.0204  0.0224  1.0000  -1.8865   0.0000   0.0000   0.0000   0.2779
  15.750   0.5492   0.16336   0.16106  -0.0219  0.0222  1.0000  -1.7999   0.0000   0.0000   0.0000   0.2807
  16.000   0.5389   0.16793   0.16562  -0.0255  0.0213  1.0000  -1.5080   0.0000   0.0000   0.0000   0.2885
  16.250   0.5410   0.17083   0.16853  -0.0268  0.0204  1.0000  -1.4788   0.0000   0.0000   0.0000   0.2906
  16.500   0.5441   0.17348   0.17117  -0.0279  0.0198  1.0000  -1.4788   0.0000   0.0000   0.0000   0.2922
  16.750   0.5480   0.17595   0.17365  -0.0289  0.0193  1.0000  -1.4986   0.0000   0.0000   0.0000   0.2935
  17.000   0.5529   0.17821   0.17593  -0.0297  0.0189  1.0000  -1.5478   0.0000   0.0000   0.0000   0.2942
  17.250   0.5616   0.18026   0.17798  -0.0297  0.0186  1.0000  -1.6783   0.0000   0.0000   0.0000   0.2929
  17.500   0.5639   0.18360   0.18132  -0.0309  0.0184  1.0000  -1.6407   0.0000   0.0000   0.0000   0.2946
  17.750   0.5587   0.18764   0.18535  -0.0340  0.0176  1.0000  -1.3856   0.0000   0.0000   0.0000   0.3009
  18.000   0.5619   0.19049   0.18821  -0.0353  0.0168  1.0000  -1.3561   0.0000   0.0000   0.0000   0.3027
  18.250   0.5657   0.19317   0.19090  -0.0365  0.0162  1.0000  -1.3497   0.0000   0.0000   0.0000   0.3042
  18.500   0.5699   0.19569   0.19342  -0.0375  0.0157  1.0000  -1.3617   0.0000   0.0000   0.0000   0.3053
  18.750   0.5747   0.19805   0.19579  -0.0385  0.0154  1.0000  -1.3988   0.0000   0.0000   0.0000   0.3061
  19.000   0.5811   0.20036   0.19811  -0.0390  0.0152  1.0000  -1.4923   0.0000   0.0000   0.0000   0.3059
  19.250   0.5872   0.20355   0.20130  -0.0395  0.0150  1.0000  -1.5488   0.0000   0.0000   0.0000   0.3057
  19.500   0.5852   0.20691   0.20466  -0.0420  0.0149  1.0000  -1.3926   0.0000   0.0000   0.0000   0.3102
  19.750   0.5866   0.21047   0.20823  -0.0439  0.0143  1.0000  -1.2798   0.0000   0.0000   0.0000   0.3133
  20.000   0.5902   0.21342   0.21118  -0.0452  0.0137  1.0000  -1.2659   0.0000   0.0000   0.0000   0.3149


