xflr5 v6.61

 Calculated polar for: NACA 0009

 1 1 Reynolds number fixed          Mach number fixed         

 xtrf =   1.000 (top)        1.000 (bottom)
 Mach =   0.000     Re =     0.540 e 6     Ncrit =   9.000

  alpha     CL        CD       CDp       Cm    Top Xtr Bot Xtr   Cpmin    Chinge    XCp    
 ------- -------- --------- --------- -------- ------- ------- -------- --------- ---------
 -10.000  -1.0218   0.02689   0.02156  -0.0118  1.0000  0.0148  -7.2719   0.0000   0.0000   0.0000   0.2294
  -9.750  -1.0068   0.02465   0.01903  -0.0105  1.0000  0.0153  -7.1045   0.0000   0.0000   0.0000   0.2308
  -9.500  -0.9881   0.02313   0.01743  -0.0096  1.0000  0.0158  -6.8536   0.0000   0.0000   0.0000   0.2318
  -9.250  -0.9671   0.02209   0.01630  -0.0088  1.0000  0.0163  -6.5791   0.0000   0.0000   0.0000   0.2326
  -9.000  -0.9456   0.02106   0.01514  -0.0081  1.0000  0.0169  -6.3151   0.0000   0.0000   0.0000   0.2335
  -8.750  -0.9237   0.02003   0.01397  -0.0073  1.0000  0.0176  -6.0596   0.0000   0.0000   0.0000   0.2344
  -8.500  -0.9008   0.01917   0.01294  -0.0065  1.0000  0.0183  -5.8013   0.0000   0.0000   0.0000   0.2353
  -8.250  -0.8803   0.01781   0.01150  -0.0056  1.0000  0.0191  -5.5682   0.0000   0.0000   0.0000   0.2365
  -8.000  -0.8572   0.01710   0.01077  -0.0050  1.0000  0.0201  -5.2834   0.0000   0.0000   0.0000   0.2373
  -7.750  -0.8331   0.01652   0.01012  -0.0044  1.0000  0.0213  -5.0077   0.0000   0.0000   0.0000   0.2380
  -7.500  -0.8092   0.01588   0.00937  -0.0038  1.0000  0.0224  -4.7817   0.0000   0.0000   0.0000   0.2389
  -7.250  -0.7871   0.01496   0.00844  -0.0030  1.0000  0.0238  -4.5611   0.0000   0.0000   0.0000   0.2400
  -7.000  -0.7630   0.01441   0.00785  -0.0024  1.0000  0.0253  -4.3274   0.0000   0.0000   0.0000   0.2409
  -6.750  -0.7394   0.01375   0.00713  -0.0017  1.0000  0.0270  -4.1086   0.0000   0.0000   0.0000   0.2420
  -6.500  -0.7153   0.01323   0.00661  -0.0011  1.0000  0.0292  -3.8736   0.0000   0.0000   0.0000   0.2430
  -6.250  -0.6913   0.01270   0.00605  -0.0004  1.0000  0.0318  -3.6512   0.0000   0.0000   0.0000   0.2441
  -6.000  -0.6669   0.01227   0.00559   0.0002  1.0000  0.0348  -3.4254   0.0000   0.0000   0.0000   0.2452
  -5.750  -0.6430   0.01177   0.00509   0.0009  1.0000  0.0384  -3.2092   0.0000   0.0000   0.0000   0.2465
  -5.500  -0.6190   0.01134   0.00467   0.0016  1.0000  0.0433  -3.0056   0.0000   0.0000   0.0000   0.2479
  -5.250  -0.5949   0.01095   0.00430   0.0023  1.0000  0.0497  -2.8165   0.0000   0.0000   0.0000   0.2494
  -5.000  -0.5709   0.01057   0.00393   0.0031  1.0000  0.0585  -2.6310   0.0000   0.0000   0.0000   0.2510
  -4.750  -0.5471   0.01016   0.00360   0.0038  1.0000  0.0719  -2.4475   0.0000   0.0000   0.0000   0.2528
  -4.500  -0.5234   0.00976   0.00331   0.0045  1.0000  0.0929  -2.2671   0.0000   0.0000   0.0000   0.2546
  -4.250  -0.4999   0.00933   0.00305   0.0052  1.0000  0.1238  -2.0902   0.0000   0.0000   0.0000   0.2566
  -4.000  -0.4764   0.00891   0.00281   0.0059  1.0000  0.1647  -1.9324   0.0000   0.0000   0.0000   0.2588
  -3.750  -0.4529   0.00851   0.00262   0.0066  1.0000  0.2131  -1.7794   0.0000   0.0000   0.0000   0.2610
  -3.500  -0.4292   0.00812   0.00245   0.0072  1.0000  0.2657  -1.6291   0.0000   0.0000   0.0000   0.2634
  -3.250  -0.4053   0.00777   0.00232   0.0078  1.0000  0.3207  -1.4831   0.0000   0.0000   0.0000   0.2659
  -3.000  -0.3810   0.00746   0.00222   0.0083  1.0000  0.3757  -1.3526   0.0000   0.0000   0.0000   0.2687
  -2.750  -0.3565   0.00718   0.00215   0.0088  1.0000  0.4298  -1.2247   0.0000   0.0000   0.0000   0.2717
  -2.500  -0.3318   0.00693   0.00211   0.0092  1.0000  0.4831  -1.1052   0.0000   0.0000   0.0000   0.2750
  -2.250  -0.2943   0.00663   0.00203   0.0070  0.9969  0.5437  -0.9681   0.0000   0.0000   0.0000   0.2710
  -2.000  -0.2563   0.00635   0.00197   0.0047  0.9933  0.6019  -0.8444   0.0000   0.0000   0.0000   0.2656
  -1.750  -0.2191   0.00608   0.00191   0.0027  0.9887  0.6567  -0.7341   0.0000   0.0000   0.0000   0.2594
  -1.500  -0.1820   0.00584   0.00186   0.0007  0.9839  0.7072  -0.6365   0.0000   0.0000   0.0000   0.2513
  -1.250  -0.1451   0.00562   0.00182  -0.0011  0.9787  0.7534  -0.5523   0.0000   0.0000   0.0000   0.2399
  -1.000  -0.1112   0.00544   0.00179  -0.0021  0.9708  0.7936  -0.4829   0.0000   0.0000   0.0000   0.2283
  -0.750  -0.0801   0.00531   0.00176  -0.0024  0.9598  0.8288  -0.4264   0.0000   0.0000   0.0000   0.2170
  -0.500  -0.0511   0.00520   0.00175  -0.0022  0.9466  0.8593  -0.3802   0.0000   0.0000   0.0000   0.2046
  -0.250  -0.0250   0.00514   0.00175  -0.0012  0.9294  0.8861  -0.3426   0.0000   0.0000   0.0000   0.1975
   0.000  -0.0000   0.00512   0.00175   0.0000  0.9094  0.9094  -0.3107   0.0000   0.0000   0.0000   0.4951
   0.250   0.0250   0.00514   0.00175   0.0012  0.8861  0.9294  -0.3426   0.0000   0.0000   0.0000   0.1975
   0.500   0.0511   0.00520   0.00175   0.0022  0.8593  0.9466  -0.3802   0.0000   0.0000   0.0000   0.2046
   0.750   0.0801   0.00531   0.00176   0.0024  0.8288  0.9598  -0.4264   0.0000   0.0000   0.0000   0.2170
   1.000   0.1112   0.00544   0.00179   0.0021  0.7936  0.9708  -0.4829   0.0000   0.0000   0.0000   0.2283
   1.250   0.1451   0.00562   0.00182   0.0011  0.7534  0.9787  -0.5523   0.0000   0.0000   0.0000   0.2399
   1.500   0.1820   0.00584   0.00186  -0.0007  0.7072  0.9838  -0.6365   0.0000   0.0000   0.0000   0.2513
   1.750   0.2191   0.00608   0.00191  -0.0027  0.6567  0.9887  -0.7341   0.0000   0.0000   0.0000   0.2594
   2.000   0.2563   0.00635   0.00197  -0.0047  0.6019  0.9933  -0.8444   0.0000   0.0000   0.0000   0.2656
   2.250   0.2943   0.00663   0.00203  -0.0070  0.5437  0.9970  -0.9681   0.0000   0.0000   0.0000   0.2710
   2.500   0.3317   0.00693   0.00211  -0.0092  0.4832  1.0000  -1.1051   0.0000   0.0000   0.0000   0.2750
   2.750   0.3565   0.00718   0.00215  -0.0088  0.4299  1.0000  -1.2246   0.0000   0.0000   0.0000   0.2717
   3.000   0.3810   0.00746   0.00222  -0.0083  0.3757  1.0000  -1.3525   0.0000   0.0000   0.0000   0.2687
   3.250   0.4052   0.00777   0.00232  -0.0078  0.3207  1.0000  -1.4830   0.0000   0.0000   0.0000   0.2659
   3.500   0.4292   0.00812   0.00245  -0.0072  0.2658  1.0000  -1.6290   0.0000   0.0000   0.0000   0.2634
   3.750   0.4529   0.00851   0.00262  -0.0066  0.2132  1.0000  -1.7792   0.0000   0.0000   0.0000   0.2610
   4.000   0.4764   0.00891   0.00281  -0.0059  0.1648  1.0000  -1.9323   0.0000   0.0000   0.0000   0.2587
   4.250   0.4999   0.00933   0.00305  -0.0052  0.1238  1.0000  -2.0901   0.0000   0.0000   0.0000   0.2566
   4.500   0.5233   0.00976   0.00331  -0.0045  0.0929  1.0000  -2.2669   0.0000   0.0000   0.0000   0.2546
   4.750   0.5470   0.01016   0.00360  -0.0038  0.0719  1.0000  -2.4474   0.0000   0.0000   0.0000   0.2528
   5.000   0.5709   0.01057   0.00393  -0.0030  0.0585  1.0000  -2.6309   0.0000   0.0000   0.0000   0.2510
   5.250   0.5949   0.01095   0.00430  -0.0023  0.0497  1.0000  -2.8163   0.0000   0.0000   0.0000   0.2494
   5.500   0.6189   0.01134   0.00467  -0.0016  0.0433  1.0000  -3.0055   0.0000   0.0000   0.0000   0.2479
   5.750   0.6430   0.01177   0.00509  -0.0009  0.0384  1.0000  -3.2091   0.0000   0.0000   0.0000   0.2465
   6.000   0.6669   0.01227   0.00559  -0.0002  0.0348  1.0000  -3.4254   0.0000   0.0000   0.0000   0.2452
   6.250   0.6913   0.01270   0.00605   0.0004  0.0318  1.0000  -3.6512   0.0000   0.0000   0.0000   0.2441
   6.500   0.7153   0.01323   0.00661   0.0011  0.0292  1.0000  -3.8735   0.0000   0.0000   0.0000   0.2430
   6.750   0.7394   0.01375   0.00713   0.0017  0.0270  1.0000  -4.1086   0.0000   0.0000   0.0000   0.2420
   7.000   0.7630   0.01441   0.00785   0.0024  0.0253  1.0000  -4.3275   0.0000   0.0000   0.0000   0.2409
   7.250   0.7871   0.01496   0.00844   0.0030  0.0238  1.0000  -4.5611   0.0000   0.0000   0.0000   0.2400
   7.500   0.8092   0.01588   0.00937   0.0038  0.0224  1.0000  -4.7818   0.0000   0.0000   0.0000   0.2389
   7.750   0.8332   0.01652   0.01012   0.0044  0.0213  1.0000  -5.0078   0.0000   0.0000   0.0000   0.2380
   8.000   0.8572   0.01710   0.01077   0.0050  0.0201  1.0000  -5.2835   0.0000   0.0000   0.0000   0.2373
   8.250   0.8803   0.01781   0.01150   0.0056  0.0191  1.0000  -5.5684   0.0000   0.0000   0.0000   0.2365
   8.500   0.9009   0.01917   0.01294   0.0065  0.0183  1.0000  -5.8016   0.0000   0.0000   0.0000   0.2353
   8.750   0.9237   0.02004   0.01397   0.0073  0.0176  1.0000  -6.0599   0.0000   0.0000   0.0000   0.2345
   9.000   0.9456   0.02106   0.01514   0.0081  0.0169  1.0000  -6.3154   0.0000   0.0000   0.0000   0.2335
   9.250   0.9672   0.02209   0.01630   0.0088  0.0163  1.0000  -6.5794   0.0000   0.0000   0.0000   0.2327
   9.500   0.9881   0.02313   0.01743   0.0096  0.0158  1.0000  -6.8540   0.0000   0.0000   0.0000   0.2318
   9.750   1.0069   0.02465   0.01903   0.0105  0.0153  1.0000  -7.1048   0.0000   0.0000   0.0000   0.2308
  10.000   1.0219   0.02689   0.02156   0.0118  0.0148  1.0000  -7.2724   0.0000   0.0000   0.0000   0.2294
  10.250   1.0387   0.02836   0.02333   0.0130  0.0143  1.0000  -7.4788   0.0000   0.0000   0.0000   0.2282
  10.500   1.0525   0.03027   0.02553   0.0143  0.0138  1.0000  -7.6539   0.0000   0.0000   0.0000   0.2268
  10.750   1.0627   0.03257   0.02812   0.0158  0.0135  1.0000  -7.7924   0.0000   0.0000   0.0000   0.2252
  11.000   1.0700   0.03499   0.03081   0.0174  0.0132  1.0000  -7.9163   0.0000   0.0000   0.0000   0.2235
  11.250   1.0744   0.03746   0.03353   0.0191  0.0130  1.0000  -8.0305   0.0000   0.0000   0.0000   0.2218
  11.500   1.0756   0.03995   0.03622   0.0207  0.0128  1.0000  -8.1328   0.0000   0.0000   0.0000   0.2199
  11.750   1.0673   0.04264   0.03913   0.0232  0.0127  1.0000  -8.1635   0.0000   0.0000   0.0000   0.2172
  12.000   1.0511   0.04630   0.04302   0.0245  0.0127  1.0000  -8.1060   0.0000   0.0000   0.0000   0.2152
  12.250   0.9949   0.05703   0.05428   0.0190  0.0130  1.0000  -7.4988   0.0000   0.0000   0.0000   0.2189
  12.500   0.9125   0.08108   0.07882  -0.0018  0.0138  1.0000  -6.3744   0.0000   0.0000   0.0000   0.2398
  12.750   0.8297   0.10770   0.10552  -0.0173  0.0148  1.0000  -5.0714   0.0000   0.0000   0.0000   0.2592
  17.250   0.8034   0.21762   0.21529  -0.0667  0.0146  1.0000  -2.0992   0.0000   0.0000   0.0000   0.3186
  17.500   0.8104   0.22217   0.21984  -0.0693  0.0137  1.0000  -1.9939   0.0000   0.0000   0.0000   0.3210
  17.750   0.8181   0.22576   0.22343  -0.0714  0.0131  1.0000  -1.9967   0.0000   0.0000   0.0000   0.3223
  18.000   0.8259   0.22911   0.22679  -0.0733  0.0127  1.0000  -2.0346   0.0000   0.0000   0.0000   0.3235
  18.250   0.8339   0.23224   0.22992  -0.0751  0.0124  1.0000  -2.0928   0.0000   0.0000   0.0000   0.3244
  18.500   0.8422   0.23515   0.23283  -0.0767  0.0122  1.0000  -2.1760   0.0000   0.0000   0.0000   0.3250
  18.750   0.8509   0.23791   0.23560  -0.0777  0.0120  1.0000  -2.2995   0.0000   0.0000   0.0000   0.3247
  19.000   0.8595   0.24166   0.23936  -0.0786  0.0119  1.0000  -2.3791   0.0000   0.0000   0.0000   0.3245
  19.250   0.8657   0.24598   0.24366  -0.0819  0.0119  1.0000  -2.2716   0.0000   0.0000   0.0000   0.3274
  19.500   0.8723   0.25065   0.24832  -0.0857  0.0117  1.0000  -2.1141   0.0000   0.0000   0.0000   0.3308
  19.750   0.8807   0.25516   0.25284  -0.0887  0.0111  1.0000  -2.0047   0.0000   0.0000   0.0000   0.3331
  20.000   0.8889   0.25868   0.25636  -0.0909  0.0105  1.0000  -2.0054   0.0000   0.0000   0.0000   0.3343


