xflr5 v6.61

 Calculated polar for: NACA 0009

 1 1 Reynolds number fixed          Mach number fixed         

 xtrf =   1.000 (top)        1.000 (bottom)
 Mach =   0.000     Re =     0.500 e 6     Ncrit =   9.000

  alpha     CL        CD       CDp       Cm    Top Xtr Bot Xtr   Cpmin    Chinge    XCp    
 ------- -------- --------- --------- -------- ------- ------- -------- --------- ---------
 -10.000  -1.0210   0.02724   0.02185  -0.0121  1.0000  0.0155  -7.2235   0.0000   0.0000   0.0000   0.2291
  -9.750  -1.0023   0.02598   0.02050  -0.0113  1.0000  0.0160  -6.9526   0.0000   0.0000   0.0000   0.2300
  -9.500  -0.9829   0.02471   0.01908  -0.0104  1.0000  0.0165  -6.7033   0.0000   0.0000   0.0000   0.2310
  -9.250  -0.9628   0.02337   0.01758  -0.0095  1.0000  0.0170  -6.4674   0.0000   0.0000   0.0000   0.2320
  -9.000  -0.9421   0.02207   0.01608  -0.0086  1.0000  0.0177  -6.2376   0.0000   0.0000   0.0000   0.2330
  -8.750  -0.9203   0.02099   0.01479  -0.0077  1.0000  0.0183  -5.9980   0.0000   0.0000   0.0000   0.2340
  -8.500  -0.9002   0.01942   0.01310  -0.0067  1.0000  0.0190  -5.7776   0.0000   0.0000   0.0000   0.2351
  -8.250  -0.8778   0.01852   0.01217  -0.0061  1.0000  0.0198  -5.5032   0.0000   0.0000   0.0000   0.2359
  -8.000  -0.8543   0.01785   0.01143  -0.0055  1.0000  0.0210  -5.2261   0.0000   0.0000   0.0000   0.2367
  -7.750  -0.8301   0.01727   0.01071  -0.0049  1.0000  0.0221  -4.9613   0.0000   0.0000   0.0000   0.2375
  -7.500  -0.8086   0.01614   0.00956  -0.0040  1.0000  0.0233  -4.7541   0.0000   0.0000   0.0000   0.2386
  -7.250  -0.7849   0.01550   0.00890  -0.0034  1.0000  0.0247  -4.5213   0.0000   0.0000   0.0000   0.2395
  -7.000  -0.7606   0.01494   0.00824  -0.0028  1.0000  0.0262  -4.2976   0.0000   0.0000   0.0000   0.2405
  -6.750  -0.7381   0.01412   0.00741  -0.0020  1.0000  0.0280  -4.0816   0.0000   0.0000   0.0000   0.2416
  -6.500  -0.7135   0.01368   0.00693  -0.0014  1.0000  0.0303  -3.8489   0.0000   0.0000   0.0000   0.2426
  -6.250  -0.6901   0.01305   0.00630  -0.0007  1.0000  0.0329  -3.6298   0.0000   0.0000   0.0000   0.2437
  -6.000  -0.6657   0.01260   0.00580  -0.0000  1.0000  0.0359  -3.4107   0.0000   0.0000   0.0000   0.2449
  -5.750  -0.6419   0.01209   0.00530   0.0007  1.0000  0.0398  -3.1944   0.0000   0.0000   0.0000   0.2462
  -5.500  -0.6179   0.01164   0.00485   0.0014  1.0000  0.0449  -2.9930   0.0000   0.0000   0.0000   0.2476
  -5.250  -0.5939   0.01122   0.00445   0.0021  1.0000  0.0515  -2.8067   0.0000   0.0000   0.0000   0.2491
  -5.000  -0.5702   0.01077   0.00404   0.0029  1.0000  0.0607  -2.6235   0.0000   0.0000   0.0000   0.2507
  -4.750  -0.5464   0.01035   0.00370   0.0036  1.0000  0.0749  -2.4413   0.0000   0.0000   0.0000   0.2524
  -4.500  -0.5228   0.00993   0.00339   0.0043  1.0000  0.0972  -2.2622   0.0000   0.0000   0.0000   0.2543
  -4.250  -0.4994   0.00948   0.00312   0.0050  1.0000  0.1309  -2.0861   0.0000   0.0000   0.0000   0.2563
  -4.000  -0.4760   0.00905   0.00288   0.0057  1.0000  0.1746  -1.9293   0.0000   0.0000   0.0000   0.2584
  -3.750  -0.4525   0.00862   0.00268   0.0064  1.0000  0.2258  -1.7766   0.0000   0.0000   0.0000   0.2606
  -3.500  -0.4289   0.00823   0.00251   0.0070  1.0000  0.2806  -1.6267   0.0000   0.0000   0.0000   0.2630
  -3.250  -0.4049   0.00787   0.00238   0.0076  1.0000  0.3364  -1.4812   0.0000   0.0000   0.0000   0.2655
  -3.000  -0.3808   0.00755   0.00228   0.0081  1.0000  0.3922  -1.3511   0.0000   0.0000   0.0000   0.2683
  -2.750  -0.3563   0.00727   0.00221   0.0087  1.0000  0.4471  -1.2234   0.0000   0.0000   0.0000   0.2713
  -2.500  -0.3317   0.00702   0.00216   0.0091  1.0000  0.5008  -1.1044   0.0000   0.0000   0.0000   0.2747
  -2.250  -0.3039   0.00679   0.00212   0.0090  0.9992  0.5554  -0.9876   0.0000   0.0000   0.0000   0.2768
  -2.000  -0.2656   0.00651   0.00207   0.0066  0.9955  0.6148  -0.8612   0.0000   0.0000   0.0000   0.2722
  -1.750  -0.2277   0.00624   0.00202   0.0044  0.9912  0.6705  -0.7480   0.0000   0.0000   0.0000   0.2668
  -1.500  -0.1895   0.00601   0.00198   0.0023  0.9870  0.7219  -0.6472   0.0000   0.0000   0.0000   0.2593
  -1.250  -0.1525   0.00580   0.00195   0.0005  0.9814  0.7679  -0.5612   0.0000   0.0000   0.0000   0.2504
  -1.000  -0.1170   0.00563   0.00193  -0.0009  0.9745  0.8080  -0.4889   0.0000   0.0000   0.0000   0.2397
  -0.750  -0.0838   0.00550   0.00191  -0.0017  0.9654  0.8424  -0.4298   0.0000   0.0000   0.0000   0.2273
  -0.500  -0.0536   0.00540   0.00190  -0.0017  0.9532  0.8717  -0.3821   0.0000   0.0000   0.0000   0.2158
  -0.250  -0.0260   0.00535   0.00190  -0.0010  0.9376  0.8971  -0.3433   0.0000   0.0000   0.0000   0.2072
   0.000  -0.0000   0.00533   0.00190   0.0000  0.9189  0.9189  -0.3106   0.0000   0.0000   0.0000   0.4835
   0.250   0.0260   0.00535   0.00190   0.0010  0.8971  0.9376  -0.3433   0.0000   0.0000   0.0000   0.2072
   0.500   0.0536   0.00540   0.00190   0.0017  0.8717  0.9532  -0.3821   0.0000   0.0000   0.0000   0.2158
   0.750   0.0838   0.00550   0.00191   0.0017  0.8424  0.9654  -0.4298   0.0000   0.0000   0.0000   0.2273
   1.000   0.1170   0.00563   0.00193   0.0009  0.8080  0.9745  -0.4889   0.0000   0.0000   0.0000   0.2396
   1.250   0.1525   0.00580   0.00195  -0.0005  0.7679  0.9814  -0.5612   0.0000   0.0000   0.0000   0.2504
   1.500   0.1894   0.00601   0.00198  -0.0023  0.7219  0.9870  -0.6471   0.0000   0.0000   0.0000   0.2593
   1.750   0.2277   0.00624   0.00202  -0.0044  0.6705  0.9912  -0.7480   0.0000   0.0000   0.0000   0.2668
   2.000   0.2656   0.00651   0.00207  -0.0066  0.6148  0.9955  -0.8612   0.0000   0.0000   0.0000   0.2722
   2.250   0.3039   0.00679   0.00212  -0.0090  0.5554  0.9993  -0.9876   0.0000   0.0000   0.0000   0.2768
   2.500   0.3316   0.00702   0.00216  -0.0091  0.5008  1.0000  -1.1043   0.0000   0.0000   0.0000   0.2747
   2.750   0.3563   0.00727   0.00220  -0.0086  0.4471  1.0000  -1.2233   0.0000   0.0000   0.0000   0.2713
   3.000   0.3807   0.00755   0.00228  -0.0081  0.3923  1.0000  -1.3510   0.0000   0.0000   0.0000   0.2683
   3.250   0.4049   0.00787   0.00237  -0.0076  0.3364  1.0000  -1.4811   0.0000   0.0000   0.0000   0.2655
   3.500   0.4288   0.00823   0.00251  -0.0070  0.2806  1.0000  -1.6265   0.0000   0.0000   0.0000   0.2630
   3.750   0.4525   0.00862   0.00268  -0.0064  0.2258  1.0000  -1.7765   0.0000   0.0000   0.0000   0.2606
   4.000   0.4759   0.00905   0.00288  -0.0057  0.1747  1.0000  -1.9292   0.0000   0.0000   0.0000   0.2584
   4.250   0.4994   0.00948   0.00312  -0.0050  0.1309  1.0000  -2.0859   0.0000   0.0000   0.0000   0.2563
   4.500   0.5228   0.00992   0.00339  -0.0043  0.0972  1.0000  -2.2621   0.0000   0.0000   0.0000   0.2543
   4.750   0.5464   0.01035   0.00370  -0.0036  0.0749  1.0000  -2.4412   0.0000   0.0000   0.0000   0.2524
   5.000   0.5702   0.01077   0.00404  -0.0029  0.0607  1.0000  -2.6234   0.0000   0.0000   0.0000   0.2507
   5.250   0.5939   0.01122   0.00445  -0.0021  0.0515  1.0000  -2.8066   0.0000   0.0000   0.0000   0.2490
   5.500   0.6179   0.01164   0.00485  -0.0014  0.0449  1.0000  -2.9929   0.0000   0.0000   0.0000   0.2475
   5.750   0.6418   0.01209   0.00530  -0.0007  0.0398  1.0000  -3.1943   0.0000   0.0000   0.0000   0.2462
   6.000   0.6656   0.01260   0.00580   0.0000  0.0359  1.0000  -3.4106   0.0000   0.0000   0.0000   0.2449
   6.250   0.6901   0.01305   0.00630   0.0007  0.0329  1.0000  -3.6297   0.0000   0.0000   0.0000   0.2437
   6.500   0.7135   0.01368   0.00693   0.0014  0.0303  1.0000  -3.8489   0.0000   0.0000   0.0000   0.2426
   6.750   0.7381   0.01411   0.00741   0.0020  0.0280  1.0000  -4.0816   0.0000   0.0000   0.0000   0.2416
   7.000   0.7606   0.01494   0.00824   0.0028  0.0262  1.0000  -4.2976   0.0000   0.0000   0.0000   0.2405
   7.250   0.7849   0.01550   0.00890   0.0034  0.0247  1.0000  -4.5213   0.0000   0.0000   0.0000   0.2395
   7.500   0.8086   0.01614   0.00956   0.0040  0.0233  1.0000  -4.7542   0.0000   0.0000   0.0000   0.2386
   7.750   0.8301   0.01727   0.01071   0.0049  0.0221  1.0000  -4.9614   0.0000   0.0000   0.0000   0.2375
   8.000   0.8543   0.01785   0.01143   0.0055  0.0210  1.0000  -5.2263   0.0000   0.0000   0.0000   0.2367
   8.250   0.8778   0.01852   0.01217   0.0061  0.0198  1.0000  -5.5034   0.0000   0.0000   0.0000   0.2359
   8.500   0.9002   0.01942   0.01310   0.0067  0.0190  1.0000  -5.7778   0.0000   0.0000   0.0000   0.2351
   8.750   0.9203   0.02099   0.01479   0.0077  0.0183  1.0000  -5.9983   0.0000   0.0000   0.0000   0.2340
   9.000   0.9422   0.02207   0.01608   0.0086  0.0177  1.0000  -6.2379   0.0000   0.0000   0.0000   0.2330
   9.250   0.9629   0.02337   0.01758   0.0095  0.0170  1.0000  -6.4677   0.0000   0.0000   0.0000   0.2320
   9.500   0.9829   0.02471   0.01908   0.0104  0.0165  1.0000  -6.7037   0.0000   0.0000   0.0000   0.2310
   9.750   1.0024   0.02598   0.02050   0.0112  0.0160  1.0000  -6.9531   0.0000   0.0000   0.0000   0.2300
  10.000   1.0211   0.02725   0.02186   0.0121  0.0155  1.0000  -7.2240   0.0000   0.0000   0.0000   0.2292
  10.250   1.0314   0.03029   0.02516   0.0135  0.0150  1.0000  -7.3478   0.0000   0.0000   0.0000   0.2276
  10.500   1.0441   0.03207   0.02732   0.0150  0.0146  1.0000  -7.5050   0.0000   0.0000   0.0000   0.2261
  10.750   1.0500   0.03494   0.03059   0.0168  0.0142  1.0000  -7.5686   0.0000   0.0000   0.0000   0.2242
  11.000   1.0482   0.03853   0.03459   0.0189  0.0140  1.0000  -7.5557   0.0000   0.0000   0.0000   0.2219
  11.250   1.0371   0.04264   0.03908   0.0211  0.0139  1.0000  -7.4723   0.0000   0.0000   0.0000   0.2193
  11.500   1.0160   0.04663   0.04337   0.0237  0.0139  1.0000  -7.3489   0.0000   0.0000   0.0000   0.2160
  11.750   0.9920   0.05168   0.04867   0.0232  0.0140  1.0000  -7.1937   0.0000   0.0000   0.0000   0.2156
  12.000   0.9670   0.05847   0.05571   0.0186  0.0141  1.0000  -7.0041   0.0000   0.0000   0.0000   0.2192
  12.250   0.9418   0.06772   0.06516   0.0103  0.0143  1.0000  -6.7616   0.0000   0.0000   0.0000   0.2271
  12.500   0.9139   0.07965   0.07725   0.0001  0.0145  1.0000  -6.4270   0.0000   0.0000   0.0000   0.2377
  12.750   0.8804   0.09322   0.09089  -0.0091  0.0148  1.0000  -5.9705   0.0000   0.0000   0.0000   0.2480
  15.750   0.7695   0.19197   0.18957  -0.0513  0.0184  1.0000  -2.4494   0.0000   0.0000   0.0000   0.3038
  16.000   0.7687   0.19925   0.19683  -0.0570  0.0172  1.0000  -2.0937   0.0000   0.0000   0.0000   0.3114
  16.250   0.7755   0.20296   0.20054  -0.0590  0.0164  1.0000  -2.0960   0.0000   0.0000   0.0000   0.3130
  16.500   0.7827   0.20636   0.20394  -0.0607  0.0159  1.0000  -2.1227   0.0000   0.0000   0.0000   0.3142
  16.750   0.7903   0.20950   0.20709  -0.0623  0.0156  1.0000  -2.1726   0.0000   0.0000   0.0000   0.3151
  17.000   0.7986   0.21233   0.20993  -0.0635  0.0153  1.0000  -2.2583   0.0000   0.0000   0.0000   0.3153
  17.250   0.8086   0.21491   0.21252  -0.0636  0.0151  1.0000  -2.4132   0.0000   0.0000   0.0000   0.3141


