xflr5 v6.61

 Calculated polar for: NACA 0009

 1 1 Reynolds number fixed          Mach number fixed         

 xtrf =   1.000 (top)        1.000 (bottom)
 Mach =   0.000     Re =     0.620 e 6     Ncrit =   9.000

  alpha     CL        CD       CDp       Cm    Top Xtr Bot Xtr   Cpmin    Chinge    XCp    
 ------- -------- --------- --------- -------- ------- ------- -------- --------- ---------
 -10.000  -1.0325   0.02423   0.01897  -0.0107  1.0000  0.0137  -7.4887   0.0000   0.0000   0.0000   0.2306
  -9.750  -1.0125   0.02314   0.01771  -0.0098  1.0000  0.0143  -7.2223   0.0000   0.0000   0.0000   0.2315
  -9.500  -0.9916   0.02209   0.01647  -0.0089  1.0000  0.0147  -6.9623   0.0000   0.0000   0.0000   0.2325
  -9.250  -0.9712   0.02083   0.01503  -0.0080  1.0000  0.0151  -6.7191   0.0000   0.0000   0.0000   0.2335
  -9.000  -0.9523   0.01926   0.01338  -0.0070  1.0000  0.0158  -6.4804   0.0000   0.0000   0.0000   0.2347
  -8.750  -0.9298   0.01847   0.01254  -0.0063  1.0000  0.0164  -6.1879   0.0000   0.0000   0.0000   0.2355
  -8.500  -0.9068   0.01773   0.01171  -0.0057  1.0000  0.0171  -5.9042   0.0000   0.0000   0.0000   0.2363
  -8.250  -0.8835   0.01701   0.01089  -0.0050  1.0000  0.0179  -5.6287   0.0000   0.0000   0.0000   0.2371
  -8.000  -0.8602   0.01626   0.01003  -0.0044  1.0000  0.0186  -5.3617   0.0000   0.0000   0.0000   0.2380
  -7.750  -0.8380   0.01538   0.00914  -0.0036  1.0000  0.0198  -5.0977   0.0000   0.0000   0.0000   0.2390
  -7.500  -0.8136   0.01489   0.00861  -0.0031  1.0000  0.0211  -4.8446   0.0000   0.0000   0.0000   0.2398
  -7.250  -0.7888   0.01443   0.00806  -0.0026  1.0000  0.0222  -4.6045   0.0000   0.0000   0.0000   0.2406
  -7.000  -0.7664   0.01358   0.00720  -0.0018  1.0000  0.0237  -4.3833   0.0000   0.0000   0.0000   0.2417
  -6.750  -0.7418   0.01313   0.00671  -0.0013  1.0000  0.0254  -4.1433   0.0000   0.0000   0.0000   0.2426
  -6.500  -0.7179   0.01256   0.00610  -0.0006  1.0000  0.0273  -3.9171   0.0000   0.0000   0.0000   0.2437
  -6.250  -0.6932   0.01217   0.00570  -0.0000  1.0000  0.0298  -3.6791   0.0000   0.0000   0.0000   0.2447
  -6.000  -0.6691   0.01168   0.00520   0.0006  1.0000  0.0327  -3.4550   0.0000   0.0000   0.0000   0.2459
  -5.750  -0.6445   0.01132   0.00481   0.0013  1.0000  0.0361  -3.2318   0.0000   0.0000   0.0000   0.2471
  -5.500  -0.6203   0.01094   0.00443   0.0020  1.0000  0.0405  -3.0238   0.0000   0.0000   0.0000   0.2485
  -5.250  -0.5963   0.01055   0.00407   0.0027  1.0000  0.0466  -2.8325   0.0000   0.0000   0.0000   0.2500
  -5.000  -0.5723   0.01017   0.00373   0.0034  1.0000  0.0549  -2.6440   0.0000   0.0000   0.0000   0.2516
  -4.750  -0.5484   0.00981   0.00343   0.0041  1.0000  0.0669  -2.4585   0.0000   0.0000   0.0000   0.2534
  -4.250  -0.5009   0.00907   0.00292   0.0056  1.0000  0.1123  -2.0978   0.0000   0.0000   0.0000   0.2573
  -4.000  -0.4774   0.00868   0.00270   0.0063  1.0000  0.1483  -1.9382   0.0000   0.0000   0.0000   0.2595
  -3.750  -0.4538   0.00830   0.00251   0.0069  1.0000  0.1919  -1.7844   0.0000   0.0000   0.0000   0.2618
  -3.500  -0.4301   0.00794   0.00236   0.0075  1.0000  0.2409  -1.6336   0.0000   0.0000   0.0000   0.2642
  -3.250  -0.4060   0.00760   0.00222   0.0081  1.0000  0.2934  -1.4866   0.0000   0.0000   0.0000   0.2667
  -3.000  -0.3817   0.00729   0.00213   0.0086  1.0000  0.3465  -1.3558   0.0000   0.0000   0.0000   0.2695
  -2.750  -0.3536   0.00699   0.00205   0.0083  0.9992  0.4021  -1.2189   0.0000   0.0000   0.0000   0.2705
  -2.500  -0.3163   0.00666   0.00195   0.0061  0.9963  0.4634  -1.0732   0.0000   0.0000   0.0000   0.2663
  -2.250  -0.2789   0.00636   0.00186   0.0038  0.9932  0.5224  -0.9378   0.0000   0.0000   0.0000   0.2609
  -2.000  -0.2422   0.00607   0.00178   0.0018  0.9890  0.5781  -0.8192   0.0000   0.0000   0.0000   0.2548
  -1.750  -0.2053   0.00581   0.00172  -0.0002  0.9848  0.6315  -0.7121   0.0000   0.0000   0.0000   0.2465
  -1.500  -0.1685   0.00556   0.00165  -0.0021  0.9803  0.6816  -0.6179   0.0000   0.0000   0.0000   0.2350
  -1.250  -0.1350   0.00534   0.00160  -0.0031  0.9728  0.7266  -0.5400   0.0000   0.0000   0.0000   0.2241
  -1.000  -0.1043   0.00516   0.00157  -0.0035  0.9623  0.7669  -0.4756   0.0000   0.0000   0.0000   0.2140
  -0.750  -0.0758   0.00502   0.00154  -0.0032  0.9489  0.8032  -0.4224   0.0000   0.0000   0.0000   0.2046
  -0.500  -0.0493   0.00491   0.00153  -0.0025  0.9329  0.8358  -0.3787   0.0000   0.0000   0.0000   0.1970
  -0.250  -0.0243   0.00484   0.00152  -0.0013  0.9136  0.8650  -0.3421   0.0000   0.0000   0.0000   0.1928
   0.000   0.0000   0.00482   0.00152  -0.0000  0.8909  0.8909  -0.3107   0.0000   0.0000   0.0000   0.4999
   0.250   0.0243   0.00484   0.00152   0.0013  0.8650  0.9136  -0.3421   0.0000   0.0000   0.0000   0.1928
   0.500   0.0493   0.00491   0.00153   0.0025  0.8358  0.9329  -0.3787   0.0000   0.0000   0.0000   0.1970
   0.750   0.0758   0.00502   0.00154   0.0032  0.8032  0.9489  -0.4224   0.0000   0.0000   0.0000   0.2046
   1.000   0.1043   0.00516   0.00157   0.0035  0.7670  0.9623  -0.4756   0.0000   0.0000   0.0000   0.2140
   1.250   0.1350   0.00534   0.00160   0.0031  0.7267  0.9728  -0.5400   0.0000   0.0000   0.0000   0.2241
   1.500   0.1685   0.00556   0.00165   0.0021  0.6816  0.9803  -0.6179   0.0000   0.0000   0.0000   0.2350
   1.750   0.2053   0.00581   0.00172   0.0002  0.6315  0.9848  -0.7121   0.0000   0.0000   0.0000   0.2465
   2.000   0.2422   0.00607   0.00178  -0.0018  0.5782  0.9890  -0.8192   0.0000   0.0000   0.0000   0.2548
   2.250   0.2789   0.00636   0.00186  -0.0038  0.5224  0.9932  -0.9378   0.0000   0.0000   0.0000   0.2609
   2.500   0.3163   0.00666   0.00195  -0.0061  0.4634  0.9963  -1.0732   0.0000   0.0000   0.0000   0.2663
   2.750   0.3536   0.00699   0.00205  -0.0083  0.4021  0.9992  -1.2189   0.0000   0.0000   0.0000   0.2705
   3.000   0.3817   0.00729   0.00213  -0.0086  0.3465  1.0000  -1.3557   0.0000   0.0000   0.0000   0.2694
   3.250   0.4060   0.00760   0.00222  -0.0081  0.2934  1.0000  -1.4865   0.0000   0.0000   0.0000   0.2667
   3.500   0.4300   0.00794   0.00236  -0.0075  0.2409  1.0000  -1.6335   0.0000   0.0000   0.0000   0.2642
   3.750   0.4538   0.00830   0.00251  -0.0069  0.1919  1.0000  -1.7843   0.0000   0.0000   0.0000   0.2617
   4.000   0.4774   0.00868   0.00270  -0.0063  0.1483  1.0000  -1.9381   0.0000   0.0000   0.0000   0.2594
   4.250   0.5009   0.00907   0.00292  -0.0056  0.1123  1.0000  -2.0977   0.0000   0.0000   0.0000   0.2573
   4.750   0.5483   0.00981   0.00343  -0.0041  0.0669  1.0000  -2.4584   0.0000   0.0000   0.0000   0.2534
   5.000   0.5723   0.01017   0.00373  -0.0034  0.0549  1.0000  -2.6439   0.0000   0.0000   0.0000   0.2516
   5.250   0.5962   0.01055   0.00407  -0.0027  0.0466  1.0000  -2.8324   0.0000   0.0000   0.0000   0.2500
   5.500   0.6203   0.01094   0.00443  -0.0019  0.0405  1.0000  -3.0236   0.0000   0.0000   0.0000   0.2485
   5.750   0.6445   0.01132   0.00481  -0.0013  0.0361  1.0000  -3.2317   0.0000   0.0000   0.0000   0.2471
   6.000   0.6691   0.01168   0.00520  -0.0006  0.0327  1.0000  -3.4549   0.0000   0.0000   0.0000   0.2459
   6.250   0.6931   0.01217   0.00570   0.0000  0.0298  1.0000  -3.6791   0.0000   0.0000   0.0000   0.2447
   6.500   0.7178   0.01256   0.00610   0.0006  0.0273  1.0000  -3.9171   0.0000   0.0000   0.0000   0.2437
   6.750   0.7418   0.01313   0.00671   0.0013  0.0254  1.0000  -4.1433   0.0000   0.0000   0.0000   0.2426
   7.000   0.7664   0.01358   0.00720   0.0018  0.0237  1.0000  -4.3833   0.0000   0.0000   0.0000   0.2417
   7.250   0.7888   0.01443   0.00806   0.0026  0.0222  1.0000  -4.6045   0.0000   0.0000   0.0000   0.2406
   7.500   0.8136   0.01489   0.00861   0.0031  0.0211  1.0000  -4.8447   0.0000   0.0000   0.0000   0.2398
   7.750   0.8380   0.01538   0.00914   0.0036  0.0198  1.0000  -5.0978   0.0000   0.0000   0.0000   0.2390
   8.000   0.8603   0.01626   0.01003   0.0043  0.0186  1.0000  -5.3618   0.0000   0.0000   0.0000   0.2380
   8.250   0.8835   0.01701   0.01089   0.0050  0.0179  1.0000  -5.6289   0.0000   0.0000   0.0000   0.2371
   8.500   0.9069   0.01773   0.01171   0.0057  0.0171  1.0000  -5.9044   0.0000   0.0000   0.0000   0.2363
   8.750   0.9299   0.01847   0.01254   0.0063  0.0164  1.0000  -6.1882   0.0000   0.0000   0.0000   0.2355
   9.000   0.9524   0.01926   0.01338   0.0070  0.0158  1.0000  -6.4807   0.0000   0.0000   0.0000   0.2347
   9.250   0.9712   0.02084   0.01503   0.0080  0.0151  1.0000  -6.7192   0.0000   0.0000   0.0000   0.2335
   9.500   0.9917   0.02209   0.01647   0.0089  0.0147  1.0000  -6.9627   0.0000   0.0000   0.0000   0.2325
   9.750   1.0125   0.02314   0.01771   0.0098  0.0143  1.0000  -7.2227   0.0000   0.0000   0.0000   0.2315
  10.000   1.0326   0.02423   0.01897   0.0106  0.0137  1.0000  -7.4892   0.0000   0.0000   0.0000   0.2306
  10.250   1.0523   0.02524   0.02011   0.0115  0.0132  1.0000  -7.7737   0.0000   0.0000   0.0000   0.2297
  10.500   1.0711   0.02629   0.02128   0.0123  0.0127  1.0000  -8.0625   0.0000   0.0000   0.0000   0.2288
  10.750   1.0880   0.02759   0.02268   0.0133  0.0124  1.0000  -8.3340   0.0000   0.0000   0.0000   0.2277
  11.000   1.0989   0.02984   0.02511   0.0147  0.0121  1.0000  -8.5177   0.0000   0.0000   0.0000   0.2262
  11.250   1.1000   0.03335   0.02899   0.0169  0.0119  1.0000  -8.5492   0.0000   0.0000   0.0000   0.2241
  11.500   1.1059   0.03550   0.03143   0.0186  0.0117  1.0000  -8.6804   0.0000   0.0000   0.0000   0.2223
  11.750   1.1047   0.03820   0.03443   0.0206  0.0116  1.0000  -8.7410   0.0000   0.0000   0.0000   0.2201
  12.000   1.0933   0.04110   0.03759   0.0233  0.0115  1.0000  -8.7308   0.0000   0.0000   0.0000   0.2171
  12.250   1.0775   0.04479   0.04153   0.0244  0.0115  1.0000  -8.6735   0.0000   0.0000   0.0000   0.2154
  12.500   1.0588   0.04970   0.04668   0.0229  0.0115  1.0000  -8.5736   0.0000   0.0000   0.0000   0.2160
  12.750   1.0381   0.05634   0.05356   0.0183  0.0115  1.0000  -8.4215   0.0000   0.0000   0.0000   0.2195
  13.000   1.0148   0.06515   0.06257   0.0108  0.0116  1.0000  -8.1916   0.0000   0.0000   0.0000   0.2260
  13.250   0.9871   0.07615   0.07375   0.0019  0.0117  1.0000  -7.8612   0.0000   0.0000   0.0000   0.2343
  13.500   0.9511   0.08923   0.08696  -0.0070  0.0119  1.0000  -7.3814   0.0000   0.0000   0.0000   0.2434
  18.500   0.8414   0.23592   0.23375  -0.0772  0.0117  1.0000  -2.1221   0.0000   0.0000   0.0000   0.3257
  18.750   0.8492   0.24067   0.23850  -0.0801  0.0110  1.0000  -2.0128   0.0000   0.0000   0.0000   0.3281
  19.000   0.8572   0.24432   0.24214  -0.0823  0.0105  1.0000  -2.0163   0.0000   0.0000   0.0000   0.3294
  19.250   0.8653   0.24779   0.24562  -0.0844  0.0102  1.0000  -2.0340   0.0000   0.0000   0.0000   0.3306
  19.500   0.8735   0.25109   0.24892  -0.0865  0.0099  1.0000  -2.0667   0.0000   0.0000   0.0000   0.3317
  19.750   0.8817   0.25416   0.25199  -0.0885  0.0096  1.0000  -2.1200   0.0000   0.0000   0.0000   0.3326
  20.000   0.8899   0.25697   0.25481  -0.0903  0.0094  1.0000  -2.1989   0.0000   0.0000   0.0000   0.3333


