xflr5 v6.61

 Calculated polar for: NACA 0009

 1 1 Reynolds number fixed          Mach number fixed         

 xtrf =   1.000 (top)        1.000 (bottom)
 Mach =   0.000     Re =     0.340 e 6     Ncrit =   9.000

  alpha     CL        CD       CDp       Cm    Top Xtr Bot Xtr   Cpmin    Chinge    XCp    
 ------- -------- --------- --------- -------- ------- ------- -------- --------- ---------
 -10.000  -0.9571   0.04208   0.03778  -0.0180  1.0000  0.0212  -5.8645   0.0000   0.0000   0.0000   0.2227
  -9.750  -0.9594   0.03741   0.03262  -0.0159  1.0000  0.0211  -5.9464   0.0000   0.0000   0.0000   0.2251
  -9.500  -0.9545   0.03339   0.02809  -0.0139  1.0000  0.0212  -5.9700   0.0000   0.0000   0.0000   0.2272
  -9.250  -0.9435   0.03018   0.02439  -0.0122  1.0000  0.0216  -5.9248   0.0000   0.0000   0.0000   0.2291
  -9.000  -0.9280   0.02777   0.02151  -0.0107  1.0000  0.0220  -5.8203   0.0000   0.0000   0.0000   0.2307
  -8.750  -0.9102   0.02532   0.01877  -0.0096  1.0000  0.0227  -5.6705   0.0000   0.0000   0.0000   0.2319
  -8.500  -0.8890   0.02394   0.01733  -0.0089  1.0000  0.0235  -5.4243   0.0000   0.0000   0.0000   0.2327
  -8.250  -0.8666   0.02295   0.01623  -0.0082  1.0000  0.0248  -5.1735   0.0000   0.0000   0.0000   0.2334
  -8.000  -0.8442   0.02181   0.01481  -0.0074  1.0000  0.0261  -4.9629   0.0000   0.0000   0.0000   0.2345
  -7.750  -0.8223   0.02021   0.01313  -0.0066  1.0000  0.0272  -4.7511   0.0000   0.0000   0.0000   0.2354
  -7.500  -0.7992   0.01924   0.01213  -0.0059  1.0000  0.0285  -4.5340   0.0000   0.0000   0.0000   0.2363
  -7.250  -0.7757   0.01832   0.01109  -0.0051  1.0000  0.0301  -4.3404   0.0000   0.0000   0.0000   0.2373
  -7.000  -0.7532   0.01727   0.00999  -0.0043  1.0000  0.0320  -4.1434   0.0000   0.0000   0.0000   0.2384
  -6.750  -0.7293   0.01662   0.00931  -0.0037  1.0000  0.0345  -3.9251   0.0000   0.0000   0.0000   0.2393
  -6.500  -0.7066   0.01573   0.00838  -0.0028  1.0000  0.0369  -3.7284   0.0000   0.0000   0.0000   0.2405
  -6.250  -0.6830   0.01507   0.00771  -0.0021  1.0000  0.0399  -3.5220   0.0000   0.0000   0.0000   0.2417
  -6.000  -0.6600   0.01435   0.00699  -0.0013  1.0000  0.0435  -3.3183   0.0000   0.0000   0.0000   0.2429
  -5.750  -0.6366   0.01373   0.00636  -0.0005  1.0000  0.0483  -3.1151   0.0000   0.0000   0.0000   0.2443
  -5.500  -0.6132   0.01313   0.00577   0.0002  1.0000  0.0541  -2.9309   0.0000   0.0000   0.0000   0.2457
  -5.250  -0.5897   0.01259   0.00525   0.0010  1.0000  0.0623  -2.7542   0.0000   0.0000   0.0000   0.2472
  -5.000  -0.5664   0.01203   0.00475   0.0018  1.0000  0.0739  -2.5801   0.0000   0.0000   0.0000   0.2489
  -4.750  -0.5431   0.01149   0.00429   0.0026  1.0000  0.0926  -2.4073   0.0000   0.0000   0.0000   0.2507
  -4.500  -0.5202   0.01089   0.00389   0.0034  1.0000  0.1246  -2.2359   0.0000   0.0000   0.0000   0.2526
  -4.250  -0.4974   0.01031   0.00356   0.0041  1.0000  0.1744  -2.0666   0.0000   0.0000   0.0000   0.2545
  -4.000  -0.4744   0.00976   0.00328   0.0048  1.0000  0.2344  -1.9145   0.0000   0.0000   0.0000   0.2565
  -3.750  -0.4513   0.00928   0.00306   0.0055  1.0000  0.2975  -1.7639   0.0000   0.0000   0.0000   0.2587
  -3.500  -0.4280   0.00885   0.00289   0.0062  1.0000  0.3602  -1.6158   0.0000   0.0000   0.0000   0.2612
  -3.250  -0.4045   0.00847   0.00274   0.0069  1.0000  0.4208  -1.4739   0.0000   0.0000   0.0000   0.2639
  -3.000  -0.3808   0.00814   0.00264   0.0076  1.0000  0.4796  -1.3453   0.0000   0.0000   0.0000   0.2669
  -2.750  -0.3569   0.00784   0.00257   0.0083  1.0000  0.5364  -1.2193   0.0000   0.0000   0.0000   0.2704
  -2.500  -0.3329   0.00759   0.00252   0.0091  1.0000  0.5916  -1.1028   0.0000   0.0000   0.0000   0.2744
  -2.250  -0.3088   0.00736   0.00250   0.0098  1.0000  0.6454  -0.9935   0.0000   0.0000   0.0000   0.2791
  -2.000  -0.2846   0.00717   0.00252   0.0106  1.0000  0.6975  -0.8930   0.0000   0.0000   0.0000   0.2847
  -1.750  -0.2601   0.00703   0.00257   0.0114  1.0000  0.7476  -0.7990   0.0000   0.0000   0.0000   0.2914
  -1.500  -0.2359   0.00693   0.00266   0.0123  1.0000  0.7950  -0.7143   0.0000   0.0000   0.0000   0.3000
  -1.250  -0.2049   0.00687   0.00274   0.0119  0.9975  0.8401  -0.6287   0.0000   0.0000   0.0000   0.3058
  -1.000  -0.1661   0.00682   0.00279   0.0099  0.9910  0.8786  -0.5435   0.0000   0.0000   0.0000   0.3076
  -0.750  -0.1268   0.00682   0.00285   0.0079  0.9843  0.9086  -0.4705   0.0000   0.0000   0.0000   0.3105
  -0.500  -0.0853   0.00684   0.00289   0.0055  0.9780  0.9315  -0.4076   0.0000   0.0000   0.0000   0.3121
  -0.250  -0.0423   0.00685   0.00290   0.0027  0.9710  0.9483  -0.3545   0.0000   0.0000   0.0000   0.3107
   0.000  -0.0000   0.00685   0.00291   0.0000  0.9611  0.9611  -0.3104   0.0000   0.0000   0.0000   0.5620
   0.250   0.0423   0.00685   0.00290  -0.0027  0.9483  0.9710  -0.3545   0.0000   0.0000   0.0000   0.3107
   0.500   0.0853   0.00684   0.00289  -0.0055  0.9315  0.9780  -0.4076   0.0000   0.0000   0.0000   0.3121
   0.750   0.1268   0.00682   0.00285  -0.0079  0.9086  0.9843  -0.4704   0.0000   0.0000   0.0000   0.3105
   1.000   0.1661   0.00682   0.00279  -0.0099  0.8786  0.9910  -0.5435   0.0000   0.0000   0.0000   0.3076
   1.250   0.2049   0.00687   0.00274  -0.0119  0.8401  0.9975  -0.6287   0.0000   0.0000   0.0000   0.3058
   1.500   0.2359   0.00693   0.00266  -0.0123  0.7951  1.0000  -0.7143   0.0000   0.0000   0.0000   0.3000
   1.750   0.2601   0.00703   0.00257  -0.0114  0.7476  1.0000  -0.7989   0.0000   0.0000   0.0000   0.2914
   2.000   0.2845   0.00717   0.00252  -0.0106  0.6975  1.0000  -0.8929   0.0000   0.0000   0.0000   0.2847
   2.250   0.3087   0.00736   0.00250  -0.0098  0.6454  1.0000  -0.9934   0.0000   0.0000   0.0000   0.2791
   2.500   0.3329   0.00758   0.00252  -0.0091  0.5916  1.0000  -1.1027   0.0000   0.0000   0.0000   0.2744
   2.750   0.3569   0.00784   0.00257  -0.0083  0.5365  1.0000  -1.2192   0.0000   0.0000   0.0000   0.2704
   3.000   0.3808   0.00814   0.00264  -0.0076  0.4796  1.0000  -1.3452   0.0000   0.0000   0.0000   0.2669
   3.250   0.4045   0.00847   0.00274  -0.0069  0.4208  1.0000  -1.4738   0.0000   0.0000   0.0000   0.2639
   3.500   0.4279   0.00885   0.00289  -0.0062  0.3603  1.0000  -1.6157   0.0000   0.0000   0.0000   0.2611
   3.750   0.4513   0.00928   0.00306  -0.0055  0.2976  1.0000  -1.7638   0.0000   0.0000   0.0000   0.2587
   4.000   0.4744   0.00976   0.00328  -0.0048  0.2344  1.0000  -1.9144   0.0000   0.0000   0.0000   0.2565
   4.250   0.4973   0.01030   0.00356  -0.0041  0.1744  1.0000  -2.0665   0.0000   0.0000   0.0000   0.2545
   4.500   0.5202   0.01089   0.00389  -0.0034  0.1246  1.0000  -2.2358   0.0000   0.0000   0.0000   0.2525
   4.750   0.5431   0.01149   0.00429  -0.0026  0.0926  1.0000  -2.4072   0.0000   0.0000   0.0000   0.2507
   5.000   0.5663   0.01203   0.00475  -0.0018  0.0739  1.0000  -2.5800   0.0000   0.0000   0.0000   0.2489
   5.250   0.5897   0.01259   0.00525  -0.0010  0.0623  1.0000  -2.7541   0.0000   0.0000   0.0000   0.2472
   5.500   0.6132   0.01313   0.00577  -0.0002  0.0541  1.0000  -2.9308   0.0000   0.0000   0.0000   0.2457
   5.750   0.6366   0.01373   0.00636   0.0006  0.0483  1.0000  -3.1150   0.0000   0.0000   0.0000   0.2443
   6.000   0.6600   0.01435   0.00699   0.0013  0.0435  1.0000  -3.3182   0.0000   0.0000   0.0000   0.2429
   6.250   0.6830   0.01507   0.00771   0.0021  0.0399  1.0000  -3.5220   0.0000   0.0000   0.0000   0.2417
   6.500   0.7066   0.01573   0.00838   0.0028  0.0369  1.0000  -3.7284   0.0000   0.0000   0.0000   0.2405
   6.750   0.7293   0.01662   0.00931   0.0037  0.0345  1.0000  -3.9251   0.0000   0.0000   0.0000   0.2393
   7.000   0.7532   0.01727   0.00999   0.0043  0.0320  1.0000  -4.1435   0.0000   0.0000   0.0000   0.2384
   7.250   0.7757   0.01832   0.01109   0.0051  0.0302  1.0000  -4.3405   0.0000   0.0000   0.0000   0.2373
   7.500   0.7992   0.01924   0.01212   0.0059  0.0285  1.0000  -4.5340   0.0000   0.0000   0.0000   0.2363
   7.750   0.8223   0.02021   0.01313   0.0066  0.0272  1.0000  -4.7513   0.0000   0.0000   0.0000   0.2355
   8.000   0.8442   0.02181   0.01481   0.0073  0.0261  1.0000  -4.9631   0.0000   0.0000   0.0000   0.2345
   8.250   0.8667   0.02295   0.01623   0.0082  0.0248  1.0000  -5.1737   0.0000   0.0000   0.0000   0.2335
   8.500   0.8890   0.02394   0.01734   0.0089  0.0235  1.0000  -5.4245   0.0000   0.0000   0.0000   0.2327
   8.750   0.9102   0.02533   0.01877   0.0096  0.0227  1.0000  -5.6707   0.0000   0.0000   0.0000   0.2319
   9.000   0.9280   0.02777   0.02151   0.0107  0.0220  1.0000  -5.8205   0.0000   0.0000   0.0000   0.2307
   9.250   0.9436   0.03018   0.02440   0.0122  0.0216  1.0000  -5.9249   0.0000   0.0000   0.0000   0.2291
   9.500   0.9546   0.03339   0.02810   0.0139  0.0212  1.0000  -5.9701   0.0000   0.0000   0.0000   0.2272
   9.750   0.9595   0.03741   0.03263   0.0159  0.0211  1.0000  -5.9464   0.0000   0.0000   0.0000   0.2251
  10.000   0.9572   0.04210   0.03780   0.0179  0.0212  1.0000  -5.8643   0.0000   0.0000   0.0000   0.2227
  10.250   0.9484   0.04696   0.04308   0.0198  0.0214  1.0000  -5.7572   0.0000   0.0000   0.0000   0.2204
  10.500   0.9337   0.05174   0.04819   0.0213  0.0215  1.0000  -5.6422   0.0000   0.0000   0.0000   0.2182
  10.750   0.9142   0.05579   0.05245   0.0228  0.0216  1.0000  -5.5500   0.0000   0.0000   0.0000   0.2158
  11.000   0.8950   0.06041   0.05723   0.0217  0.0218  1.0000  -5.4631   0.0000   0.0000   0.0000   0.2161
  11.250   0.8771   0.06608   0.06303   0.0178  0.0219  1.0000  -5.3697   0.0000   0.0000   0.0000   0.2196
  11.500   0.8627   0.07248   0.06951   0.0128  0.0221  1.0000  -5.2830   0.0000   0.0000   0.0000   0.2247
  15.250   0.5306   0.16029   0.15760  -0.0218  0.0283  1.0000  -1.4969   0.0000   0.0000   0.0000   0.2827
  15.500   0.5341   0.16272   0.16004  -0.0227  0.0274  1.0000  -1.5197   0.0000   0.0000   0.0000   0.2839
  15.750   0.5401   0.16491   0.16223  -0.0231  0.0269  1.0000  -1.5875   0.0000   0.0000   0.0000   0.2840
  16.000   0.5549   0.16737   0.16471  -0.0219  0.0264  1.0000  -1.7868   0.0000   0.0000   0.0000   0.2801
  16.250   0.5468   0.17081   0.16814  -0.0248  0.0262  1.0000  -1.5932   0.0000   0.0000   0.0000   0.2863
  16.500   0.5416   0.17433   0.17165  -0.0277  0.0252  1.0000  -1.4135   0.0000   0.0000   0.0000   0.2921
  16.750   0.5444   0.17711   0.17444  -0.0289  0.0242  1.0000  -1.3945   0.0000   0.0000   0.0000   0.2940
  17.000   0.5480   0.17970   0.17704  -0.0300  0.0235  1.0000  -1.3994   0.0000   0.0000   0.0000   0.2954
  17.250   0.5525   0.18214   0.17949  -0.0309  0.0230  1.0000  -1.4259   0.0000   0.0000   0.0000   0.2964
  17.500   0.5585   0.18450   0.18186  -0.0315  0.0226  1.0000  -1.4882   0.0000   0.0000   0.0000   0.2965
  17.750   0.5701   0.18770   0.18507  -0.0310  0.0223  1.0000  -1.6236   0.0000   0.0000   0.0000   0.2940
  18.000   0.5620   0.19073   0.18808  -0.0344  0.0219  1.0000  -1.3780   0.0000   0.0000   0.0000   0.3011
  18.250   0.5637   0.19387   0.19123  -0.0362  0.0206  1.0000  -1.2959   0.0000   0.0000   0.0000   0.3040
  18.500   0.5675   0.19656   0.19393  -0.0373  0.0198  1.0000  -1.2875   0.0000   0.0000   0.0000   0.3054
  18.750   0.5718   0.19912   0.19649  -0.0384  0.0193  1.0000  -1.2971   0.0000   0.0000   0.0000   0.3066
  19.000   0.5768   0.20156   0.19894  -0.0393  0.0189  1.0000  -1.3450   0.0000   0.0000   0.0000   0.3072
  19.250   0.5846   0.20421   0.20161  -0.0395  0.0186  1.0000  -1.4580   0.0000   0.0000   0.0000   0.3061
  19.500   0.5872   0.20746   0.20485  -0.0408  0.0184  1.0000  -1.4296   0.0000   0.0000   0.0000   0.3080
  19.750   0.5861   0.21064   0.20803  -0.0432  0.0181  1.0000  -1.2873   0.0000   0.0000   0.0000   0.3123
  20.000   0.5890   0.21380   0.21120  -0.0448  0.0174  1.0000  -1.2379   0.0000   0.0000   0.0000   0.3144


