xflr5 v6.61

 Calculated polar for: NACA 0009

 1 1 Reynolds number fixed          Mach number fixed         

 xtrf =   1.000 (top)        1.000 (bottom)
 Mach =   0.000     Re =     0.480 e 6     Ncrit =   9.000

  alpha     CL        CD       CDp       Cm    Top Xtr Bot Xtr   Cpmin    Chinge    XCp    
 ------- -------- --------- --------- -------- ------- ------- -------- --------- ---------
 -10.000  -1.0167   0.02838   0.02312  -0.0127  1.0000  0.0159  -7.0996   0.0000   0.0000   0.0000   0.2285
  -9.750  -0.9982   0.02715   0.02176  -0.0118  1.0000  0.0164  -6.8403   0.0000   0.0000   0.0000   0.2295
  -9.500  -0.9799   0.02559   0.02001  -0.0108  1.0000  0.0169  -6.6238   0.0000   0.0000   0.0000   0.2306
  -9.250  -0.9608   0.02401   0.01819  -0.0098  1.0000  0.0175  -6.4185   0.0000   0.0000   0.0000   0.2317
  -9.000  -0.9404   0.02262   0.01656  -0.0088  1.0000  0.0180  -6.2028   0.0000   0.0000   0.0000   0.2328
  -8.750  -0.9193   0.02130   0.01501  -0.0078  1.0000  0.0186  -5.9808   0.0000   0.0000   0.0000   0.2338
  -8.500  -0.8990   0.01980   0.01347  -0.0070  1.0000  0.0194  -5.7395   0.0000   0.0000   0.0000   0.2348
  -8.250  -0.8762   0.01898   0.01260  -0.0064  1.0000  0.0203  -5.4661   0.0000   0.0000   0.0000   0.2356
  -8.000  -0.8528   0.01826   0.01178  -0.0057  1.0000  0.0214  -5.1984   0.0000   0.0000   0.0000   0.2364
  -7.750  -0.8299   0.01736   0.01074  -0.0050  1.0000  0.0226  -4.9543   0.0000   0.0000   0.0000   0.2374
  -7.500  -0.8074   0.01646   0.00985  -0.0043  1.0000  0.0238  -4.7272   0.0000   0.0000   0.0000   0.2384
  -7.250  -0.7837   0.01580   0.00913  -0.0036  1.0000  0.0252  -4.5021   0.0000   0.0000   0.0000   0.2393
  -7.000  -0.7601   0.01511   0.00834  -0.0029  1.0000  0.0267  -4.2888   0.0000   0.0000   0.0000   0.2403
  -6.750  -0.7371   0.01437   0.00761  -0.0022  1.0000  0.0285  -4.0643   0.0000   0.0000   0.0000   0.2414
  -6.500  -0.7122   0.01396   0.00713  -0.0016  1.0000  0.0308  -3.8349   0.0000   0.0000   0.0000   0.2423
  -6.250  -0.6893   0.01326   0.00645  -0.0008  1.0000  0.0336  -3.6178   0.0000   0.0000   0.0000   0.2435
  -6.000  -0.6655   0.01270   0.00585  -0.0001  1.0000  0.0367  -3.4050   0.0000   0.0000   0.0000   0.2448
  -5.750  -0.6411   0.01228   0.00542   0.0005  1.0000  0.0405  -3.1862   0.0000   0.0000   0.0000   0.2460
  -5.500  -0.6173   0.01181   0.00496   0.0012  1.0000  0.0458  -2.9865   0.0000   0.0000   0.0000   0.2474
  -5.250  -0.5935   0.01135   0.00452   0.0020  1.0000  0.0525  -2.8022   0.0000   0.0000   0.0000   0.2489
  -5.000  -0.5698   0.01090   0.00411   0.0028  1.0000  0.0619  -2.6191   0.0000   0.0000   0.0000   0.2505
  -4.750  -0.5461   0.01047   0.00376   0.0035  1.0000  0.0766  -2.4379   0.0000   0.0000   0.0000   0.2523
  -4.500  -0.5225   0.01003   0.00344   0.0042  1.0000  0.0997  -2.2594   0.0000   0.0000   0.0000   0.2541
  -4.250  -0.4991   0.00957   0.00316   0.0049  1.0000  0.1349  -2.0837   0.0000   0.0000   0.0000   0.2561
  -4.000  -0.4758   0.00912   0.00291   0.0056  1.0000  0.1803  -1.9278   0.0000   0.0000   0.0000   0.2582
  -3.750  -0.4523   0.00868   0.00271   0.0063  1.0000  0.2326  -1.7753   0.0000   0.0000   0.0000   0.2604
  -3.500  -0.4287   0.00829   0.00255   0.0069  1.0000  0.2884  -1.6254   0.0000   0.0000   0.0000   0.2628
  -3.250  -0.4048   0.00793   0.00241   0.0075  1.0000  0.3452  -1.4804   0.0000   0.0000   0.0000   0.2653
  -3.000  -0.3806   0.00761   0.00231   0.0081  1.0000  0.4014  -1.3502   0.0000   0.0000   0.0000   0.2681
  -2.750  -0.3563   0.00733   0.00224   0.0086  1.0000  0.4565  -1.2227   0.0000   0.0000   0.0000   0.2711
  -2.500  -0.3317   0.00707   0.00219   0.0091  1.0000  0.5104  -1.1040   0.0000   0.0000   0.0000   0.2746
  -2.250  -0.3067   0.00685   0.00217   0.0095  1.0000  0.5630  -0.9931   0.0000   0.0000   0.0000   0.2784
  -2.000  -0.2707   0.00659   0.00213   0.0077  0.9970  0.6214  -0.8703   0.0000   0.0000   0.0000   0.2757
  -1.750  -0.2322   0.00633   0.00209   0.0054  0.9930  0.6778  -0.7552   0.0000   0.0000   0.0000   0.2705
  -1.500  -0.1945   0.00610   0.00205   0.0033  0.9880  0.7295  -0.6545   0.0000   0.0000   0.0000   0.2645
  -1.250  -0.1573   0.00590   0.00203   0.0015  0.9825  0.7754  -0.5671   0.0000   0.0000   0.0000   0.2569
  -1.000  -0.1207   0.00574   0.00201  -0.0001  0.9762  0.8155  -0.4928   0.0000   0.0000   0.0000   0.2465
  -0.750  -0.0869   0.00561   0.00199  -0.0010  0.9675  0.8495  -0.4326   0.0000   0.0000   0.0000   0.2358
  -0.250  -0.0270   0.00547   0.00198  -0.0008  0.9415  0.9030  -0.3440   0.0000   0.0000   0.0000   0.2159
   0.000   0.0000   0.00546   0.00198  -0.0000  0.9242  0.9242  -0.3106   0.0000   0.0000   0.0000   0.4783
   0.250   0.0270   0.00547   0.00198   0.0008  0.9031  0.9415  -0.3440   0.0000   0.0000   0.0000   0.2159
   0.500   0.0553   0.00552   0.00198   0.0013  0.8785  0.9564  -0.3834   0.0000   0.0000   0.0000   0.2233
   0.750   0.0869   0.00561   0.00199   0.0010  0.8495  0.9675  -0.4326   0.0000   0.0000   0.0000   0.2358
   1.000   0.1207   0.00574   0.00201   0.0001  0.8155  0.9762  -0.4928   0.0000   0.0000   0.0000   0.2465
   1.250   0.1573   0.00590   0.00203  -0.0015  0.7754  0.9825  -0.5671   0.0000   0.0000   0.0000   0.2569
   1.500   0.1945   0.00610   0.00205  -0.0033  0.7295  0.9880  -0.6545   0.0000   0.0000   0.0000   0.2645
   1.750   0.2322   0.00633   0.00209  -0.0054  0.6778  0.9930  -0.7552   0.0000   0.0000   0.0000   0.2705
   2.000   0.2707   0.00659   0.00213  -0.0077  0.6214  0.9970  -0.8703   0.0000   0.0000   0.0000   0.2757
   2.250   0.3067   0.00685   0.00217  -0.0095  0.5631  1.0000  -0.9930   0.0000   0.0000   0.0000   0.2784
   2.500   0.3316   0.00707   0.00219  -0.0091  0.5104  1.0000  -1.1039   0.0000   0.0000   0.0000   0.2746
   2.750   0.3562   0.00733   0.00224  -0.0086  0.4566  1.0000  -1.2226   0.0000   0.0000   0.0000   0.2711
   3.000   0.3806   0.00761   0.00231  -0.0081  0.4014  1.0000  -1.3501   0.0000   0.0000   0.0000   0.2681
   3.250   0.4048   0.00793   0.00241  -0.0075  0.3452  1.0000  -1.4803   0.0000   0.0000   0.0000   0.2653
   3.500   0.4287   0.00829   0.00255  -0.0069  0.2885  1.0000  -1.6253   0.0000   0.0000   0.0000   0.2627
   3.750   0.4523   0.00868   0.00271  -0.0063  0.2327  1.0000  -1.7751   0.0000   0.0000   0.0000   0.2604
   4.000   0.4757   0.00911   0.00291  -0.0056  0.1804  1.0000  -1.9276   0.0000   0.0000   0.0000   0.2582
   4.250   0.4991   0.00957   0.00316  -0.0049  0.1349  1.0000  -2.0836   0.0000   0.0000   0.0000   0.2561
   4.500   0.5225   0.01003   0.00344  -0.0042  0.0997  1.0000  -2.2593   0.0000   0.0000   0.0000   0.2541
   4.750   0.5460   0.01047   0.00376  -0.0035  0.0766  1.0000  -2.4377   0.0000   0.0000   0.0000   0.2522
   5.000   0.5698   0.01089   0.00411  -0.0028  0.0619  1.0000  -2.6190   0.0000   0.0000   0.0000   0.2505
   5.250   0.5935   0.01135   0.00452  -0.0020  0.0525  1.0000  -2.8022   0.0000   0.0000   0.0000   0.2489
   5.500   0.6172   0.01181   0.00496  -0.0012  0.0458  1.0000  -2.9864   0.0000   0.0000   0.0000   0.2473
   5.750   0.6411   0.01228   0.00542  -0.0005  0.0405  1.0000  -3.1861   0.0000   0.0000   0.0000   0.2460
   6.000   0.6655   0.01270   0.00585   0.0001  0.0367  1.0000  -3.4049   0.0000   0.0000   0.0000   0.2448
   6.250   0.6893   0.01326   0.00645   0.0008  0.0336  1.0000  -3.6177   0.0000   0.0000   0.0000   0.2435
   6.500   0.7122   0.01396   0.00713   0.0016  0.0308  1.0000  -3.8348   0.0000   0.0000   0.0000   0.2423
   6.750   0.7371   0.01437   0.00761   0.0022  0.0285  1.0000  -4.0643   0.0000   0.0000   0.0000   0.2414
   7.000   0.7601   0.01511   0.00834   0.0029  0.0267  1.0000  -4.2888   0.0000   0.0000   0.0000   0.2403
   7.250   0.7837   0.01580   0.00913   0.0036  0.0252  1.0000  -4.5022   0.0000   0.0000   0.0000   0.2393
   7.500   0.8075   0.01646   0.00985   0.0042  0.0238  1.0000  -4.7272   0.0000   0.0000   0.0000   0.2384
   7.750   0.8299   0.01736   0.01074   0.0050  0.0226  1.0000  -4.9544   0.0000   0.0000   0.0000   0.2374
   8.000   0.8528   0.01826   0.01178   0.0057  0.0215  1.0000  -5.1985   0.0000   0.0000   0.0000   0.2364
   8.250   0.8763   0.01898   0.01260   0.0063  0.0203  1.0000  -5.4663   0.0000   0.0000   0.0000   0.2356
   8.500   0.8991   0.01980   0.01347   0.0070  0.0194  1.0000  -5.7398   0.0000   0.0000   0.0000   0.2348
   8.750   0.9194   0.02130   0.01501   0.0078  0.0186  1.0000  -5.9809   0.0000   0.0000   0.0000   0.2338
   9.000   0.9404   0.02262   0.01656   0.0088  0.0180  1.0000  -6.2031   0.0000   0.0000   0.0000   0.2328
   9.250   0.9609   0.02401   0.01819   0.0097  0.0175  1.0000  -6.4188   0.0000   0.0000   0.0000   0.2317
   9.500   0.9799   0.02560   0.02001   0.0108  0.0169  1.0000  -6.6241   0.0000   0.0000   0.0000   0.2306
   9.750   0.9983   0.02715   0.02176   0.0118  0.0164  1.0000  -6.8407   0.0000   0.0000   0.0000   0.2295
  10.000   1.0168   0.02838   0.02312   0.0126  0.0159  1.0000  -7.1002   0.0000   0.0000   0.0000   0.2286
  10.250   1.0336   0.02984   0.02467   0.0135  0.0154  1.0000  -7.3614   0.0000   0.0000   0.0000   0.2276
  10.500   1.0399   0.03318   0.02835   0.0152  0.0149  1.0000  -7.4374   0.0000   0.0000   0.0000   0.2258
  10.750   1.0461   0.03574   0.03133   0.0171  0.0146  1.0000  -7.5149   0.0000   0.0000   0.0000   0.2239
  11.000   1.0436   0.03934   0.03535   0.0192  0.0144  1.0000  -7.4951   0.0000   0.0000   0.0000   0.2216
  11.250   1.0320   0.04338   0.03977   0.0214  0.0144  1.0000  -7.4118   0.0000   0.0000   0.0000   0.2189
  11.500   1.0117   0.04725   0.04392   0.0238  0.0144  1.0000  -7.3035   0.0000   0.0000   0.0000   0.2159
  11.750   0.9897   0.05206   0.04898   0.0232  0.0144  1.0000  -7.1737   0.0000   0.0000   0.0000   0.2155
  12.000   0.9673   0.05836   0.05550   0.0191  0.0145  1.0000  -7.0183   0.0000   0.0000   0.0000   0.2187
  12.250   0.9450   0.06664   0.06396   0.0119  0.0146  1.0000  -6.8236   0.0000   0.0000   0.0000   0.2255
  12.500   0.9215   0.07685   0.07432   0.0031  0.0148  1.0000  -6.5679   0.0000   0.0000   0.0000   0.2343
  12.750   0.8958   0.08791   0.08546  -0.0048  0.0150  1.0000  -6.2474   0.0000   0.0000   0.0000   0.2428
  16.500   0.7817   0.20696   0.20449  -0.0610  0.0164  1.0000  -2.0680   0.0000   0.0000   0.0000   0.3146
  16.750   0.7890   0.21040   0.20793  -0.0628  0.0159  1.0000  -2.0876   0.0000   0.0000   0.0000   0.3159
  17.000   0.7968   0.21356   0.21109  -0.0644  0.0156  1.0000  -2.1323   0.0000   0.0000   0.0000   0.3168
  17.250   0.8050   0.21642   0.21397  -0.0656  0.0153  1.0000  -2.2119   0.0000   0.0000   0.0000   0.3171
  17.500   0.8149   0.21904   0.21659  -0.0659  0.0151  1.0000  -2.3601   0.0000   0.0000   0.0000   0.3159
  17.750   0.8217   0.22339   0.22094  -0.0677  0.0150  1.0000  -2.3249   0.0000   0.0000   0.0000   0.3171
  18.000   0.8248   0.22938   0.22690  -0.0730  0.0146  1.0000  -2.0101   0.0000   0.0000   0.0000   0.3233
  18.250   0.8324   0.23357   0.23110  -0.0755  0.0137  1.0000  -1.9645   0.0000   0.0000   0.0000   0.3252
  18.500   0.8404   0.23715   0.23468  -0.0776  0.0132  1.0000  -1.9759   0.0000   0.0000   0.0000   0.3265
  18.750   0.8484   0.24054   0.23807  -0.0797  0.0128  1.0000  -2.0031   0.0000   0.0000   0.0000   0.3277
  19.000   0.8565   0.24377   0.24130  -0.0816  0.0125  1.0000  -2.0454   0.0000   0.0000   0.0000   0.3287
  19.250   0.8647   0.24682   0.24436  -0.0834  0.0123  1.0000  -2.1059   0.0000   0.0000   0.0000   0.3295
  19.500   0.8730   0.24971   0.24726  -0.0850  0.0121  1.0000  -2.1926   0.0000   0.0000   0.0000   0.3298
  19.750   0.8822   0.25273   0.25029  -0.0856  0.0120  1.0000  -2.3322   0.0000   0.0000   0.0000   0.3291
  20.000   0.8899   0.25679   0.25434  -0.0876  0.0119  1.0000  -2.3248   0.0000   0.0000   0.0000   0.3301


