xflr5 v6.61

 Calculated polar for: NACA 0009

 1 1 Reynolds number fixed          Mach number fixed         

 xtrf =   1.000 (top)        1.000 (bottom)
 Mach =   0.000     Re =     0.380 e 6     Ncrit =   9.000

  alpha     CL        CD       CDp       Cm    Top Xtr Bot Xtr   Cpmin    Chinge    XCp    
 ------- -------- --------- --------- -------- ------- ------- -------- --------- ---------
 -10.000  -0.9961   0.03429   0.02908  -0.0147  1.0000  0.0186  -6.6299   0.0000   0.0000   0.0000   0.2265
  -9.750  -0.9848   0.03135   0.02591  -0.0134  1.0000  0.0190  -6.5032   0.0000   0.0000   0.0000   0.2278
  -9.500  -0.9686   0.02942   0.02380  -0.0123  1.0000  0.0194  -6.3075   0.0000   0.0000   0.0000   0.2289
  -9.250  -0.9503   0.02776   0.02198  -0.0114  1.0000  0.0199  -6.0973   0.0000   0.0000   0.0000   0.2299
  -9.000  -0.9317   0.02599   0.01995  -0.0104  1.0000  0.0206  -5.9096   0.0000   0.0000   0.0000   0.2311
  -8.750  -0.9120   0.02426   0.01794  -0.0093  1.0000  0.0213  -5.7268   0.0000   0.0000   0.0000   0.2322
  -8.500  -0.8909   0.02286   0.01624  -0.0083  1.0000  0.0221  -5.5305   0.0000   0.0000   0.0000   0.2334
  -8.250  -0.8700   0.02124   0.01454  -0.0075  1.0000  0.0231  -5.3030   0.0000   0.0000   0.0000   0.2343
  -8.000  -0.8470   0.02042   0.01367  -0.0069  1.0000  0.0244  -5.0353   0.0000   0.0000   0.0000   0.2350
  -7.750  -0.8238   0.01946   0.01255  -0.0062  1.0000  0.0257  -4.8009   0.0000   0.0000   0.0000   0.2359
  -7.500  -0.8014   0.01825   0.01122  -0.0053  1.0000  0.0269  -4.6146   0.0000   0.0000   0.0000   0.2370
  -7.250  -0.7786   0.01733   0.01032  -0.0046  1.0000  0.0283  -4.3968   0.0000   0.0000   0.0000   0.2380
  -7.000  -0.7549   0.01662   0.00951  -0.0039  1.0000  0.0302  -4.1868   0.0000   0.0000   0.0000   0.2389
  -6.750  -0.7322   0.01576   0.00864  -0.0031  1.0000  0.0323  -3.9774   0.0000   0.0000   0.0000   0.2400
  -6.500  -0.7081   0.01518   0.00801  -0.0025  1.0000  0.0350  -3.7602   0.0000   0.0000   0.0000   0.2410
  -6.250  -0.6854   0.01439   0.00723  -0.0016  1.0000  0.0376  -3.5569   0.0000   0.0000   0.0000   0.2423
  -6.000  -0.6615   0.01384   0.00661  -0.0009  1.0000  0.0411  -3.3489   0.0000   0.0000   0.0000   0.2436
  -5.750  -0.6379   0.01328   0.00606  -0.0002  1.0000  0.0457  -3.1381   0.0000   0.0000   0.0000   0.2448
  -5.500  -0.6144   0.01271   0.00551   0.0006  1.0000  0.0513  -2.9487   0.0000   0.0000   0.0000   0.2462
  -5.250  -0.5909   0.01216   0.00499   0.0014  1.0000  0.0588  -2.7716   0.0000   0.0000   0.0000   0.2478
  -5.000  -0.5674   0.01166   0.00453   0.0021  1.0000  0.0698  -2.5930   0.0000   0.0000   0.0000   0.2494
  -4.750  -0.5441   0.01114   0.00411   0.0029  1.0000  0.0868  -2.4178   0.0000   0.0000   0.0000   0.2512
  -4.500  -0.5209   0.01060   0.00374   0.0037  1.0000  0.1158  -2.2436   0.0000   0.0000   0.0000   0.2531
  -4.250  -0.4979   0.01006   0.00342   0.0044  1.0000  0.1603  -2.0718   0.0000   0.0000   0.0000   0.2550
  -3.750  -0.4515   0.00907   0.00294   0.0058  1.0000  0.2755  -1.7675   0.0000   0.0000   0.0000   0.2592
  -3.500  -0.4280   0.00866   0.00277   0.0064  1.0000  0.3361  -1.6186   0.0000   0.0000   0.0000   0.2616
  -3.250  -0.4044   0.00828   0.00262   0.0071  1.0000  0.3958  -1.4757   0.0000   0.0000   0.0000   0.2643
  -3.000  -0.3805   0.00795   0.00252   0.0077  1.0000  0.4541  -1.3465   0.0000   0.0000   0.0000   0.2672
  -2.750  -0.3565   0.00766   0.00245   0.0084  1.0000  0.5105  -1.2200   0.0000   0.0000   0.0000   0.2705
  -2.500  -0.3323   0.00740   0.00240   0.0090  1.0000  0.5652  -1.1028   0.0000   0.0000   0.0000   0.2743
  -2.250  -0.3079   0.00718   0.00238   0.0097  1.0000  0.6186  -0.9930   0.0000   0.0000   0.0000   0.2786
  -2.000  -0.2832   0.00699   0.00239   0.0103  1.0000  0.6712  -0.8916   0.0000   0.0000   0.0000   0.2837
  -1.750  -0.2583   0.00683   0.00244   0.0109  1.0000  0.7216  -0.7969   0.0000   0.0000   0.0000   0.2898
  -1.500  -0.2259   0.00668   0.00248   0.0100  0.9975  0.7727  -0.6999   0.0000   0.0000   0.0000   0.2920
  -1.250  -0.1872   0.00653   0.00250   0.0080  0.9919  0.8189  -0.6055   0.0000   0.0000   0.0000   0.2902
  -1.000  -0.1488   0.00644   0.00252   0.0061  0.9859  0.8578  -0.5238   0.0000   0.0000   0.0000   0.2884
  -0.750  -0.1098   0.00638   0.00254   0.0041  0.9799  0.8896  -0.4541   0.0000   0.0000   0.0000   0.2848
  -0.500  -0.0718   0.00635   0.00255   0.0024  0.9726  0.9143  -0.3966   0.0000   0.0000   0.0000   0.2806
  -0.250  -0.0361   0.00634   0.00256   0.0012  0.9621  0.9341  -0.3503   0.0000   0.0000   0.0000   0.2817
   0.000  -0.0000   0.00634   0.00257   0.0000  0.9493  0.9494  -0.3105   0.0000   0.0000   0.0000   0.5810
   0.250   0.0361   0.00634   0.00256  -0.0012  0.9341  0.9621  -0.3503   0.0000   0.0000   0.0000   0.2817
   0.500   0.0718   0.00635   0.00255  -0.0024  0.9143  0.9726  -0.3966   0.0000   0.0000   0.0000   0.2807
   0.750   0.1098   0.00638   0.00254  -0.0041  0.8896  0.9799  -0.4541   0.0000   0.0000   0.0000   0.2848
   1.000   0.1488   0.00644   0.00252  -0.0061  0.8578  0.9859  -0.5238   0.0000   0.0000   0.0000   0.2884
   1.250   0.1872   0.00653   0.00250  -0.0080  0.8189  0.9919  -0.6055   0.0000   0.0000   0.0000   0.2902
   1.500   0.2259   0.00668   0.00248  -0.0100  0.7727  0.9975  -0.6999   0.0000   0.0000   0.0000   0.2920
   1.750   0.2583   0.00683   0.00244  -0.0109  0.7217  1.0000  -0.7969   0.0000   0.0000   0.0000   0.2898
   2.000   0.2832   0.00699   0.00239  -0.0103  0.6712  1.0000  -0.8915   0.0000   0.0000   0.0000   0.2837
   2.250   0.3078   0.00718   0.00238  -0.0096  0.6187  1.0000  -0.9929   0.0000   0.0000   0.0000   0.2786
   2.500   0.3322   0.00740   0.00240  -0.0090  0.5653  1.0000  -1.1027   0.0000   0.0000   0.0000   0.2743
   2.750   0.3564   0.00766   0.00245  -0.0084  0.5105  1.0000  -1.2199   0.0000   0.0000   0.0000   0.2705
   3.000   0.3805   0.00795   0.00252  -0.0077  0.4541  1.0000  -1.3465   0.0000   0.0000   0.0000   0.2672
   3.250   0.4044   0.00828   0.00262  -0.0071  0.3959  1.0000  -1.4756   0.0000   0.0000   0.0000   0.2642
   3.500   0.4280   0.00866   0.00276  -0.0064  0.3361  1.0000  -1.6185   0.0000   0.0000   0.0000   0.2616
   3.750   0.4515   0.00907   0.00293  -0.0058  0.2755  1.0000  -1.7674   0.0000   0.0000   0.0000   0.2592
   4.250   0.4978   0.01006   0.00342  -0.0044  0.1604  1.0000  -2.0717   0.0000   0.0000   0.0000   0.2550
   4.500   0.5209   0.01060   0.00374  -0.0037  0.1158  1.0000  -2.2435   0.0000   0.0000   0.0000   0.2531
   4.750   0.5440   0.01114   0.00411  -0.0029  0.0868  1.0000  -2.4177   0.0000   0.0000   0.0000   0.2512
   5.000   0.5674   0.01166   0.00453  -0.0021  0.0699  1.0000  -2.5929   0.0000   0.0000   0.0000   0.2494
   5.250   0.5909   0.01216   0.00499  -0.0014  0.0588  1.0000  -2.7715   0.0000   0.0000   0.0000   0.2478
   5.500   0.6143   0.01271   0.00551  -0.0006  0.0513  1.0000  -2.9486   0.0000   0.0000   0.0000   0.2462
   5.750   0.6378   0.01327   0.00606   0.0002  0.0457  1.0000  -3.1381   0.0000   0.0000   0.0000   0.2448
   6.000   0.6615   0.01384   0.00661   0.0009  0.0411  1.0000  -3.3489   0.0000   0.0000   0.0000   0.2435
   6.250   0.6854   0.01439   0.00723   0.0016  0.0376  1.0000  -3.5568   0.0000   0.0000   0.0000   0.2423
   6.500   0.7081   0.01518   0.00801   0.0025  0.0350  1.0000  -3.7602   0.0000   0.0000   0.0000   0.2410
   6.750   0.7322   0.01576   0.00864   0.0031  0.0323  1.0000  -3.9774   0.0000   0.0000   0.0000   0.2400
   7.000   0.7549   0.01662   0.00951   0.0039  0.0302  1.0000  -4.1869   0.0000   0.0000   0.0000   0.2389
   7.250   0.7787   0.01733   0.01032   0.0046  0.0283  1.0000  -4.3969   0.0000   0.0000   0.0000   0.2380
   7.500   0.8014   0.01825   0.01122   0.0053  0.0269  1.0000  -4.6147   0.0000   0.0000   0.0000   0.2370
   7.750   0.8239   0.01946   0.01255   0.0062  0.0257  1.0000  -4.8010   0.0000   0.0000   0.0000   0.2359
   8.000   0.8471   0.02042   0.01367   0.0069  0.0244  1.0000  -5.0355   0.0000   0.0000   0.0000   0.2350
   8.250   0.8700   0.02124   0.01454   0.0075  0.0231  1.0000  -5.3032   0.0000   0.0000   0.0000   0.2343
   8.500   0.8909   0.02286   0.01624   0.0083  0.0221  1.0000  -5.5307   0.0000   0.0000   0.0000   0.2334
   8.750   0.9121   0.02426   0.01794   0.0093  0.0213  1.0000  -5.7270   0.0000   0.0000   0.0000   0.2323
   9.000   0.9317   0.02599   0.01995   0.0103  0.0206  1.0000  -5.9098   0.0000   0.0000   0.0000   0.2311
   9.250   0.9504   0.02777   0.02198   0.0114  0.0199  1.0000  -6.0976   0.0000   0.0000   0.0000   0.2300
   9.500   0.9687   0.02942   0.02380   0.0123  0.0194  1.0000  -6.3079   0.0000   0.0000   0.0000   0.2289
   9.750   0.9849   0.03136   0.02591   0.0134  0.0190  1.0000  -6.5036   0.0000   0.0000   0.0000   0.2279
  10.000   0.9962   0.03430   0.02909   0.0146  0.0186  1.0000  -6.6301   0.0000   0.0000   0.0000   0.2265
  10.250   0.9980   0.03832   0.03357   0.0166  0.0184  1.0000  -6.6220   0.0000   0.0000   0.0000   0.2243
  10.500   0.9943   0.04207   0.03786   0.0188  0.0181  1.0000  -6.5700   0.0000   0.0000   0.0000   0.2219
  10.750   0.9822   0.04652   0.04275   0.0208  0.0180  1.0000  -6.4583   0.0000   0.0000   0.0000   0.2193
  11.000   0.9630   0.05063   0.04716   0.0230  0.0180  1.0000  -6.3457   0.0000   0.0000   0.0000   0.2163
  11.250   0.9419   0.05504   0.05177   0.0232  0.0180  1.0000  -6.2381   0.0000   0.0000   0.0000   0.2153
  11.500   0.9216   0.06051   0.05743   0.0202  0.0181  1.0000  -6.1237   0.0000   0.0000   0.0000   0.2175
  11.750   0.9030   0.06725   0.06431   0.0148  0.0183  1.0000  -5.9978   0.0000   0.0000   0.0000   0.2226
  12.000   0.8870   0.07471   0.07185   0.0089  0.0184  1.0000  -5.8667   0.0000   0.0000   0.0000   0.2286
  15.000   0.7449   0.18311   0.18036  -0.0482  0.0231  1.0000  -2.1547   0.0000   0.0000   0.0000   0.3030
  15.250   0.7529   0.18608   0.18333  -0.0491  0.0227  1.0000  -2.2396   0.0000   0.0000   0.0000   0.3031
  15.500   0.7641   0.18860   0.18587  -0.0487  0.0224  1.0000  -2.4057   0.0000   0.0000   0.0000   0.3012
  15.750   0.7696   0.19310   0.19036  -0.0502  0.0222  1.0000  -2.3935   0.0000   0.0000   0.0000   0.3025
  16.000   0.7670   0.19966   0.19688  -0.0563  0.0216  1.0000  -2.0609   0.0000   0.0000   0.0000   0.3107
  16.250   0.7731   0.20390   0.20112  -0.0588  0.0205  1.0000  -2.0090   0.0000   0.0000   0.0000   0.3130
  16.500   0.7803   0.20740   0.20463  -0.0606  0.0197  1.0000  -2.0234   0.0000   0.0000   0.0000   0.3143
  16.750   0.7883   0.21042   0.20765  -0.0621  0.0191  1.0000  -2.0821   0.0000   0.0000   0.0000   0.3150
  17.000   0.7973   0.21310   0.21034  -0.0628  0.0187  1.0000  -2.1941   0.0000   0.0000   0.0000   0.3147
  17.250   0.8093   0.21623   0.21349  -0.0619  0.0185  1.0000  -2.3890   0.0000   0.0000   0.0000   0.3119
  17.500   0.8112   0.22112   0.21835  -0.0665  0.0184  1.0000  -2.1615   0.0000   0.0000   0.0000   0.3172
  17.750   0.8160   0.22637   0.22359  -0.0709  0.0175  1.0000  -1.9273   0.0000   0.0000   0.0000   0.3221
  18.000   0.8236   0.23012   0.22735  -0.0731  0.0167  1.0000  -1.9255   0.0000   0.0000   0.0000   0.3236
  18.250   0.8316   0.23359   0.23081  -0.0751  0.0162  1.0000  -1.9482   0.0000   0.0000   0.0000   0.3248
  18.500   0.8397   0.23683   0.23405  -0.0770  0.0157  1.0000  -1.9907   0.0000   0.0000   0.0000   0.3258
  18.750   0.8479   0.23985   0.23708  -0.0786  0.0154  1.0000  -2.0585   0.0000   0.0000   0.0000   0.3264
  19.000   0.8567   0.24275   0.23999  -0.0797  0.0152  1.0000  -2.1677   0.0000   0.0000   0.0000   0.3262
  19.250   0.8670   0.24654   0.24379  -0.0797  0.0150  1.0000  -2.3077   0.0000   0.0000   0.0000   0.3248
  19.500   0.8719   0.25058   0.24782  -0.0839  0.0149  1.0000  -2.1526   0.0000   0.0000   0.0000   0.3288
  19.750   0.8790   0.25500   0.25224  -0.0879  0.0146  1.0000  -1.9934   0.0000   0.0000   0.0000   0.3323
  20.000   0.8874   0.25886   0.25609  -0.0904  0.0140  1.0000  -1.9514   0.0000   0.0000   0.0000   0.3339


