xflr5 v6.61

 Calculated polar for: NACA 0009

 1 1 Reynolds number fixed          Mach number fixed         

 xtrf =   1.000 (top)        1.000 (bottom)
 Mach =   0.000     Re =     0.140 e 6     Ncrit =   9.000

  alpha     CL        CD       CDp       Cm    Top Xtr Bot Xtr   Cpmin    Chinge    XCp    
 ------- -------- --------- --------- -------- ------- ------- -------- --------- ---------
  -8.750  -0.8547   0.04904   0.04312  -0.0167  1.0000  0.0517  -4.0797   0.0000   0.0000   0.0000   0.2237
  -8.500  -0.8430   0.04487   0.03880  -0.0158  1.0000  0.0505  -4.0253   0.0000   0.0000   0.0000   0.2246
  -8.250  -0.8357   0.04007   0.03347  -0.0142  1.0000  0.0491  -4.0597   0.0000   0.0000   0.0000   0.2265
  -8.000  -0.8247   0.03576   0.02854  -0.0124  1.0000  0.0485  -4.0743   0.0000   0.0000   0.0000   0.2285
  -7.750  -0.8080   0.03294   0.02525  -0.0111  1.0000  0.0500  -3.9877   0.0000   0.0000   0.0000   0.2301
  -7.500  -0.7905   0.03035   0.02194  -0.0093  1.0000  0.0519  -3.9284   0.0000   0.0000   0.0000   0.2321
  -7.250  -0.7678   0.02799   0.01951  -0.0087  1.0000  0.0536  -3.7928   0.0000   0.0000   0.0000   0.2327
  -7.000  -0.7445   0.02609   0.01738  -0.0079  1.0000  0.0558  -3.6675   0.0000   0.0000   0.0000   0.2337
  -6.750  -0.7212   0.02435   0.01537  -0.0070  1.0000  0.0592  -3.5358   0.0000   0.0000   0.0000   0.2348
  -6.500  -0.6970   0.02303   0.01392  -0.0062  1.0000  0.0637  -3.3765   0.0000   0.0000   0.0000   0.2357
  -6.250  -0.6727   0.02152   0.01241  -0.0055  1.0000  0.0679  -3.2152   0.0000   0.0000   0.0000   0.2366
  -6.000  -0.6489   0.02031   0.01119  -0.0048  1.0000  0.0742  -3.0473   0.0000   0.0000   0.0000   0.2376
  -5.750  -0.6254   0.01915   0.01005  -0.0039  1.0000  0.0818  -2.8809   0.0000   0.0000   0.0000   0.2389
  -5.500  -0.6023   0.01812   0.00902  -0.0030  1.0000  0.0921  -2.7400   0.0000   0.0000   0.0000   0.2403
  -5.250  -0.5802   0.01705   0.00808  -0.0020  1.0000  0.1053  -2.5955   0.0000   0.0000   0.0000   0.2420
  -5.000  -0.5582   0.01606   0.00721  -0.0010  1.0000  0.1263  -2.4525   0.0000   0.0000   0.0000   0.2439
  -4.750  -0.5374   0.01497   0.00640   0.0001  1.0000  0.1618  -2.3099   0.0000   0.0000   0.0000   0.2460
  -4.500  -0.5177   0.01378   0.00571   0.0013  1.0000  0.2324  -2.1673   0.0000   0.0000   0.0000   0.2484
  -4.250  -0.4980   0.01282   0.00525   0.0025  1.0000  0.3307  -2.0244   0.0000   0.0000   0.0000   0.2511
  -4.000  -0.4774   0.01214   0.00496   0.0037  1.0000  0.4188  -1.8837   0.0000   0.0000   0.0000   0.2542
  -3.750  -0.4564   0.01162   0.00475   0.0052  1.0000  0.4955  -1.7419   0.0000   0.0000   0.0000   0.2578
  -3.500  -0.4350   0.01119   0.00460   0.0067  1.0000  0.5645  -1.6012   0.0000   0.0000   0.0000   0.2620
  -3.250  -0.4134   0.01084   0.00447   0.0083  1.0000  0.6287  -1.4689   0.0000   0.0000   0.0000   0.2669
  -3.000  -0.3919   0.01057   0.00442   0.0101  1.0000  0.6884  -1.3459   0.0000   0.0000   0.0000   0.2727
  -2.750  -0.3704   0.01037   0.00440   0.0121  1.0000  0.7441  -1.2256   0.0000   0.0000   0.0000   0.2797
  -2.500  -0.3490   0.01027   0.00445   0.0142  1.0000  0.7953  -1.1153   0.0000   0.0000   0.0000   0.2880
  -2.250  -0.3271   0.01026   0.00452   0.0164  1.0000  0.8427  -1.0098   0.0000   0.0000   0.0000   0.2975
  -2.000  -0.3016   0.01036   0.00464   0.0179  1.0000  0.8853  -0.9057   0.0000   0.0000   0.0000   0.3070
  -1.750  -0.2680   0.01053   0.00478   0.0177  1.0000  0.9227  -0.7955   0.0000   0.0000   0.0000   0.3135
  -1.500  -0.2201   0.01076   0.00490   0.0143  1.0000  0.9505  -0.6760   0.0000   0.0000   0.0000   0.3123
  -1.250  -0.1614   0.01093   0.00497   0.0083  1.0000  0.9697  -0.5596   0.0000   0.0000   0.0000   0.2988
  -1.000  -0.0982   0.01099   0.00493   0.0011  1.0000  0.9834  -0.4594   0.0000   0.0000   0.0000   0.2579
  -0.750  -0.0365   0.01092   0.00479  -0.0061  1.0000  0.9958  -0.3812   0.0000   0.0000   0.0000   0.0780
  -0.500  -0.0084   0.01074   0.00459  -0.0071  1.0000  1.0000  -0.3430   0.0000   0.0000   0.0000  -0.6152
  -0.250  -0.0032   0.01060   0.00447  -0.0038  1.0000  1.0000  -0.3253   0.0000   0.0000   0.0000  -0.9713
   0.000   0.0000   0.01056   0.00443  -0.0000  1.0000  1.0000  -0.3105   0.0000   0.0000   0.0000   0.4094
   0.250   0.0032   0.01060   0.00447   0.0038  1.0000  1.0000  -0.3253   0.0000   0.0000   0.0000  -0.9706
   0.500   0.0084   0.01074   0.00459   0.0071  1.0000  1.0000  -0.3430   0.0000   0.0000   0.0000  -0.6146
   0.750   0.0365   0.01092   0.00479   0.0061  0.9958  1.0000  -0.3812   0.0000   0.0000   0.0000   0.0779
   1.000   0.0982   0.01099   0.00493  -0.0011  0.9834  1.0000  -0.4594   0.0000   0.0000   0.0000   0.2578
   1.250   0.1614   0.01093   0.00497  -0.0083  0.9697  1.0000  -0.5596   0.0000   0.0000   0.0000   0.2988
   1.500   0.2200   0.01076   0.00490  -0.0143  0.9505  1.0000  -0.6760   0.0000   0.0000   0.0000   0.3123
   1.750   0.2680   0.01053   0.00478  -0.0177  0.9227  1.0000  -0.7955   0.0000   0.0000   0.0000   0.3135
   2.000   0.3016   0.01036   0.00464  -0.0179  0.8853  1.0000  -0.9056   0.0000   0.0000   0.0000   0.3069
   2.250   0.3271   0.01026   0.00452  -0.0164  0.8427  1.0000  -1.0097   0.0000   0.0000   0.0000   0.2975
   2.500   0.3490   0.01027   0.00445  -0.0142  0.7952  1.0000  -1.1153   0.0000   0.0000   0.0000   0.2880
   2.750   0.3704   0.01037   0.00440  -0.0121  0.7440  1.0000  -1.2256   0.0000   0.0000   0.0000   0.2797
   3.000   0.3919   0.01057   0.00441  -0.0101  0.6884  1.0000  -1.3459   0.0000   0.0000   0.0000   0.2727
   3.250   0.4134   0.01084   0.00447  -0.0083  0.6288  1.0000  -1.4688   0.0000   0.0000   0.0000   0.2669
   3.500   0.4350   0.01119   0.00460  -0.0067  0.5645  1.0000  -1.6012   0.0000   0.0000   0.0000   0.2620
   3.750   0.4563   0.01161   0.00475  -0.0051  0.4955  1.0000  -1.7418   0.0000   0.0000   0.0000   0.2578
   4.000   0.4774   0.01214   0.00496  -0.0037  0.4188  1.0000  -1.8836   0.0000   0.0000   0.0000   0.2542
   4.250   0.4979   0.01282   0.00525  -0.0024  0.3308  1.0000  -2.0244   0.0000   0.0000   0.0000   0.2511
   4.500   0.5177   0.01378   0.00571  -0.0012  0.2324  1.0000  -2.1673   0.0000   0.0000   0.0000   0.2484
   4.750   0.5374   0.01497   0.00640  -0.0001  0.1618  1.0000  -2.3098   0.0000   0.0000   0.0000   0.2460
   5.000   0.5582   0.01606   0.00721   0.0010  0.1263  1.0000  -2.4525   0.0000   0.0000   0.0000   0.2439
   5.250   0.5802   0.01705   0.00808   0.0020  0.1053  1.0000  -2.5955   0.0000   0.0000   0.0000   0.2420
   5.500   0.6022   0.01812   0.00902   0.0030  0.0920  1.0000  -2.7399   0.0000   0.0000   0.0000   0.2403
   5.750   0.6254   0.01915   0.01005   0.0039  0.0818  1.0000  -2.8809   0.0000   0.0000   0.0000   0.2389
   6.000   0.6489   0.02031   0.01119   0.0048  0.0742  1.0000  -3.0473   0.0000   0.0000   0.0000   0.2376
   6.250   0.6727   0.02152   0.01241   0.0055  0.0679  1.0000  -3.2152   0.0000   0.0000   0.0000   0.2366
   6.500   0.6970   0.02303   0.01392   0.0062  0.0637  1.0000  -3.3765   0.0000   0.0000   0.0000   0.2357
   6.750   0.7212   0.02435   0.01537   0.0070  0.0592  1.0000  -3.5358   0.0000   0.0000   0.0000   0.2348
   7.000   0.7446   0.02609   0.01738   0.0079  0.0558  1.0000  -3.6676   0.0000   0.0000   0.0000   0.2337
   7.250   0.7678   0.02799   0.01951   0.0087  0.0536  1.0000  -3.7928   0.0000   0.0000   0.0000   0.2327
   7.500   0.7905   0.03035   0.02194   0.0093  0.0519  1.0000  -3.9285   0.0000   0.0000   0.0000   0.2321
   7.750   0.8080   0.03294   0.02525   0.0111  0.0500  1.0000  -3.9878   0.0000   0.0000   0.0000   0.2301
   8.000   0.8247   0.03576   0.02854   0.0124  0.0485  1.0000  -4.0743   0.0000   0.0000   0.0000   0.2285
   8.250   0.8357   0.04007   0.03347   0.0142  0.0491  1.0000  -4.0597   0.0000   0.0000   0.0000   0.2265
   8.500   0.8431   0.04488   0.03880   0.0158  0.0505  1.0000  -4.0254   0.0000   0.0000   0.0000   0.2246
   8.750   0.8537   0.04922   0.04340   0.0169  0.0525  1.0000  -4.0462   0.0000   0.0000   0.0000   0.2235
  10.000   0.6938   0.10447   0.10023  -0.0110  0.0975  1.0000  -2.1842   0.0000   0.0000   0.0000   0.2591
  10.250   0.6973   0.10826   0.10402  -0.0118  0.0946  1.0000  -2.2078   0.0000   0.0000   0.0000   0.2599
  10.500   0.7208   0.10996   0.10575  -0.0065  0.0929  1.0000  -2.4070   0.0000   0.0000   0.0000   0.2517
  10.750   0.6870   0.11873   0.11441  -0.0178  0.0894  1.0000  -2.0871   0.0000   0.0000   0.0000   0.2685
  11.000   0.6932   0.12223   0.11791  -0.0180  0.0868  1.0000  -2.1278   0.0000   0.0000   0.0000   0.2684
  11.250   0.7043   0.12582   0.12150  -0.0166  0.0852  1.0000  -2.2115   0.0000   0.0000   0.0000   0.2657
  11.500   0.6865   0.13216   0.12778  -0.0235  0.0820  1.0000  -2.0130   0.0000   0.0000   0.0000   0.2762
  11.750   0.6995   0.13487   0.13051  -0.0221  0.0788  1.0000  -2.1191   0.0000   0.0000   0.0000   0.2733
  12.000   0.6939   0.14026   0.13585  -0.0255  0.0772  1.0000  -2.0271   0.0000   0.0000   0.0000   0.2783
  12.250   0.6922   0.14460   0.14017  -0.0283  0.0735  1.0000  -1.9741   0.0000   0.0000   0.0000   0.2823
  12.500   0.7145   0.14705   0.14269  -0.0244  0.0712  1.0000  -2.1743   0.0000   0.0000   0.0000   0.2752
  12.750   0.6981   0.15299   0.14854  -0.0314  0.0698  1.0000  -1.9467   0.0000   0.0000   0.0000   0.2859
  13.000   0.6993   0.15705   0.15259  -0.0337  0.0671  1.0000  -1.9094   0.0000   0.0000   0.0000   0.2888
  13.250   0.7103   0.16044   0.15599  -0.0334  0.0652  1.0000  -1.9790   0.0000   0.0000   0.0000   0.2874
  13.500   0.7175   0.16485   0.16040  -0.0340  0.0642  1.0000  -1.9945   0.0000   0.0000   0.0000   0.2875
  13.750   0.7099   0.16915   0.16465  -0.0389  0.0621  1.0000  -1.8490   0.0000   0.0000   0.0000   0.2948
  14.000   0.7154   0.17282   0.16832  -0.0404  0.0600  1.0000  -1.8650   0.0000   0.0000   0.0000   0.2962
  14.250   0.7293   0.17648   0.17200  -0.0396  0.0584  1.0000  -1.9849   0.0000   0.0000   0.0000   0.2937
  14.500   0.7311   0.18079   0.17629  -0.0421  0.0577  1.0000  -1.9419   0.0000   0.0000   0.0000   0.2967
  14.750   0.7295   0.18459   0.18006  -0.0461  0.0558  1.0000  -1.8398   0.0000   0.0000   0.0000   0.3021
  15.000   0.7361   0.18816   0.18364  -0.0476  0.0538  1.0000  -1.8554   0.0000   0.0000   0.0000   0.3034
  15.250   0.7582   0.19288   0.18841  -0.0446  0.0520  1.0000  -2.0806   0.0000   0.0000   0.0000   0.2972
  15.500   0.7493   0.19581   0.19128  -0.0508  0.0513  1.0000  -1.8750   0.0000   0.0000   0.0000   0.3059
  15.750   0.7540   0.19944   0.19490  -0.0535  0.0489  1.0000  -1.8371   0.0000   0.0000   0.0000   0.3088
  16.000   0.7626   0.20281   0.19828  -0.0546  0.0472  1.0000  -1.8814   0.0000   0.0000   0.0000   0.3091
  16.250   0.7801   0.20785   0.20335  -0.0527  0.0462  1.0000  -2.0518   0.0000   0.0000   0.0000   0.3048
  16.500   0.7762   0.21051   0.20597  -0.0583  0.0457  1.0000  -1.8728   0.0000   0.0000   0.0000   0.3120
  16.750   0.7815   0.21411   0.20955  -0.0613  0.0441  1.0000  -1.8170   0.0000   0.0000   0.0000   0.3151
  17.000   0.7891   0.21758   0.21303  -0.0631  0.0426  1.0000  -1.8220   0.0000   0.0000   0.0000   0.3163
  17.250   0.7980   0.22097   0.21643  -0.0643  0.0415  1.0000  -1.8638   0.0000   0.0000   0.0000   0.3166
  17.500   0.8128   0.22613   0.22162  -0.0631  0.0408  1.0000  -2.0053   0.0000   0.0000   0.0000   0.3133
  17.750   0.8129   0.22853   0.22399  -0.0682  0.0404  1.0000  -1.8459   0.0000   0.0000   0.0000   0.3193
  18.000   0.8192   0.23199   0.22743  -0.0714  0.0391  1.0000  -1.7813   0.0000   0.0000   0.0000   0.3222
  18.250   0.8271   0.23544   0.23089  -0.0735  0.0378  1.0000  -1.7791   0.0000   0.0000   0.0000   0.3236
  18.500   0.8356   0.23877   0.23423  -0.0752  0.0368  1.0000  -1.8151   0.0000   0.0000   0.0000   0.3244
  18.750   0.8454   0.24242   0.23789  -0.0759  0.0360  1.0000  -1.9012   0.0000   0.0000   0.0000   0.3238
  19.000   0.8533   0.24639   0.24185  -0.0778  0.0355  1.0000  -1.9107   0.0000   0.0000   0.0000   0.3249
  19.250   0.8591   0.24939   0.24484  -0.0819  0.0344  1.0000  -1.8186   0.0000   0.0000   0.0000   0.3287
  19.500   0.8673   0.25273   0.24818  -0.0842  0.0330  1.0000  -1.8232   0.0000   0.0000   0.0000   0.3300
  19.750   0.8758   0.25595   0.25142  -0.0860  0.0319  1.0000  -1.8555   0.0000   0.0000   0.0000   0.3308
  20.000   0.8848   0.25938   0.25486  -0.0872  0.0312  1.0000  -1.9210   0.0000   0.0000   0.0000   0.3307


