xflr5 v6.61

 Calculated polar for: NACA 0009

 1 1 Reynolds number fixed          Mach number fixed         

 xtrf =   1.000 (top)        1.000 (bottom)
 Mach =   0.000     Re =     0.980 e 6     Ncrit =   9.000

  alpha     CL        CD       CDp       Cm    Top Xtr Bot Xtr   Cpmin    Chinge    XCp    
 ------- -------- --------- --------- -------- ------- ------- -------- --------- ---------
 -10.000  -1.0600   0.01865   0.01350  -0.0069  1.0000  0.0110  -8.0675   0.0000   0.0000   0.0000   0.2342
  -9.750  -1.0370   0.01801   0.01276  -0.0063  1.0000  0.0114  -7.7381   0.0000   0.0000   0.0000   0.2350
  -9.500  -1.0131   0.01750   0.01217  -0.0059  1.0000  0.0118  -7.4008   0.0000   0.0000   0.0000   0.2356
  -9.250  -0.9926   0.01640   0.01096  -0.0049  1.0000  0.0123  -7.1246   0.0000   0.0000   0.0000   0.2367
  -9.000  -0.9703   0.01559   0.01009  -0.0043  1.0000  0.0128  -6.8192   0.0000   0.0000   0.0000   0.2376
  -8.750  -0.9462   0.01505   0.00951  -0.0038  1.0000  0.0134  -6.4958   0.0000   0.0000   0.0000   0.2383
  -8.500  -0.9218   0.01454   0.00894  -0.0033  1.0000  0.0140  -6.1804   0.0000   0.0000   0.0000   0.2389
  -8.250  -0.8971   0.01407   0.00841  -0.0029  1.0000  0.0146  -5.8708   0.0000   0.0000   0.0000   0.2396
  -8.000  -0.8727   0.01355   0.00781  -0.0023  1.0000  0.0152  -5.5722   0.0000   0.0000   0.0000   0.2404
  -7.750  -0.8493   0.01284   0.00707  -0.0017  1.0000  0.0162  -5.3040   0.0000   0.0000   0.0000   0.2413
  -7.500  -0.8241   0.01246   0.00666  -0.0013  1.0000  0.0172  -5.0317   0.0000   0.0000   0.0000   0.2420
  -7.250  -0.7985   0.01214   0.00631  -0.0009  1.0000  0.0182  -4.7630   0.0000   0.0000   0.0000   0.2427
  -7.000  -0.7743   0.01160   0.00573  -0.0004  1.0000  0.0196  -4.5160   0.0000   0.0000   0.0000   0.2436
  -6.750  -0.7491   0.01126   0.00537   0.0001  1.0000  0.0211  -4.2586   0.0000   0.0000   0.0000   0.2444
  -6.500  -0.7238   0.01095   0.00503   0.0006  1.0000  0.0224  -4.0089   0.0000   0.0000   0.0000   0.2453
  -6.250  -0.6994   0.01052   0.00461   0.0012  1.0000  0.0247  -3.7696   0.0000   0.0000   0.0000   0.2465
  -6.000  -0.6745   0.01024   0.00430   0.0018  1.0000  0.0269  -3.5302   0.0000   0.0000   0.0000   0.2476
  -5.750  -0.6500   0.00992   0.00399   0.0024  1.0000  0.0300  -3.2961   0.0000   0.0000   0.0000   0.2489
  -5.500  -0.6256   0.00961   0.00370   0.0031  1.0000  0.0338  -3.0780   0.0000   0.0000   0.0000   0.2503
  -5.250  -0.6012   0.00933   0.00343   0.0038  1.0000  0.0384  -2.8789   0.0000   0.0000   0.0000   0.2518
  -5.000  -0.5770   0.00907   0.00319   0.0045  1.0000  0.0448  -2.6833   0.0000   0.0000   0.0000   0.2535
  -4.750  -0.5529   0.00880   0.00296   0.0052  1.0000  0.0536  -2.4922   0.0000   0.0000   0.0000   0.2553
  -4.500  -0.5290   0.00853   0.00276   0.0060  1.0000  0.0658  -2.3058   0.0000   0.0000   0.0000   0.2574
  -4.250  -0.5053   0.00826   0.00257   0.0067  1.0000  0.0829  -2.1241   0.0000   0.0000   0.0000   0.2596
  -4.000  -0.4816   0.00797   0.00240   0.0075  1.0000  0.1063  -1.9588   0.0000   0.0000   0.0000   0.2619
  -3.750  -0.4524   0.00765   0.00222   0.0070  0.9991  0.1382  -1.7867   0.0000   0.0000   0.0000   0.2619
  -3.500  -0.4171   0.00728   0.00205   0.0051  0.9974  0.1832  -1.6019   0.0000   0.0000   0.0000   0.2589
  -3.250  -0.3823   0.00690   0.00187   0.0034  0.9949  0.2335  -1.4303   0.0000   0.0000   0.0000   0.2556
  -3.000  -0.3467   0.00654   0.00173   0.0015  0.9929  0.2875  -1.2728   0.0000   0.0000   0.0000   0.2510
  -2.750  -0.3122   0.00620   0.00160  -0.0002  0.9896  0.3419  -1.1254   0.0000   0.0000   0.0000   0.2463
  -2.500  -0.2763   0.00589   0.00149  -0.0021  0.9871  0.3961  -0.9907   0.0000   0.0000   0.0000   0.2394
  -2.250  -0.2434   0.00561   0.00139  -0.0033  0.9814  0.4468  -0.8729   0.0000   0.0000   0.0000   0.2336
  -2.000  -0.2118   0.00535   0.00131  -0.0041  0.9741  0.4960  -0.7679   0.0000   0.0000   0.0000   0.2277
  -1.500  -0.1543   0.00493   0.00118  -0.0043  0.9514  0.5866  -0.5988   0.0000   0.0000   0.0000   0.2194
  -1.250  -0.1281   0.00476   0.00113  -0.0037  0.9359  0.6290  -0.5313   0.0000   0.0000   0.0000   0.2182
  -1.000  -0.1026   0.00461   0.00108  -0.0030  0.9171  0.6697  -0.4734   0.0000   0.0000   0.0000   0.2183
  -0.750  -0.0771   0.00449   0.00105  -0.0022  0.8956  0.7086  -0.4232   0.0000   0.0000   0.0000   0.2187
  -0.500  -0.0514   0.00441   0.00102  -0.0015  0.8713  0.7459  -0.3801   0.0000   0.0000   0.0000   0.2190
  -0.250  -0.0258   0.00436   0.00100  -0.0007  0.8439  0.7811  -0.3429   0.0000   0.0000   0.0000   0.2196
   0.000  -0.0000   0.00435   0.00099   0.0000  0.8140  0.8140  -0.3105   0.0000   0.0000   0.0000   0.4894
   0.250   0.0258   0.00436   0.00100   0.0007  0.7811  0.8439  -0.3429   0.0000   0.0000   0.0000   0.2196
   0.500   0.0514   0.00441   0.00102   0.0015  0.7459  0.8713  -0.3801   0.0000   0.0000   0.0000   0.2190
   0.750   0.0771   0.00449   0.00105   0.0022  0.7086  0.8957  -0.4232   0.0000   0.0000   0.0000   0.2187
   1.000   0.1026   0.00461   0.00108   0.0030  0.6697  0.9171  -0.4734   0.0000   0.0000   0.0000   0.2183
   1.250   0.1281   0.00476   0.00113   0.0037  0.6290  0.9359  -0.5313   0.0000   0.0000   0.0000   0.2182
   1.500   0.1543   0.00493   0.00118   0.0043  0.5866  0.9514  -0.5988   0.0000   0.0000   0.0000   0.2194
   1.750   0.1817   0.00513   0.00124   0.0045  0.5425  0.9646  -0.6765   0.0000   0.0000   0.0000   0.2223
   2.000   0.2118   0.00535   0.00131   0.0041  0.4959  0.9741  -0.7679   0.0000   0.0000   0.0000   0.2277
   2.250   0.2434   0.00561   0.00139   0.0033  0.4469  0.9814  -0.8729   0.0000   0.0000   0.0000   0.2336
   2.500   0.2763   0.00589   0.00149   0.0021  0.3961  0.9871  -0.9907   0.0000   0.0000   0.0000   0.2394
   2.750   0.3122   0.00620   0.00160   0.0002  0.3419  0.9896  -1.1254   0.0000   0.0000   0.0000   0.2463
   3.000   0.3467   0.00654   0.00173  -0.0015  0.2875  0.9929  -1.2728   0.0000   0.0000   0.0000   0.2510
   3.250   0.3823   0.00690   0.00187  -0.0034  0.2335  0.9949  -1.4303   0.0000   0.0000   0.0000   0.2556
   3.500   0.4171   0.00728   0.00205  -0.0051  0.1832  0.9974  -1.6020   0.0000   0.0000   0.0000   0.2589
   3.750   0.4524   0.00765   0.00222  -0.0070  0.1382  0.9991  -1.7867   0.0000   0.0000   0.0000   0.2619
   4.000   0.4816   0.00797   0.00240  -0.0075  0.1063  1.0000  -1.9587   0.0000   0.0000   0.0000   0.2619
   4.250   0.5052   0.00826   0.00257  -0.0067  0.0829  1.0000  -2.1239   0.0000   0.0000   0.0000   0.2595
   4.500   0.5290   0.00853   0.00276  -0.0060  0.0659  1.0000  -2.3056   0.0000   0.0000   0.0000   0.2573
   4.750   0.5529   0.00880   0.00296  -0.0052  0.0536  1.0000  -2.4920   0.0000   0.0000   0.0000   0.2553
   5.000   0.5769   0.00907   0.00319  -0.0045  0.0448  1.0000  -2.6831   0.0000   0.0000   0.0000   0.2535
   5.250   0.6012   0.00933   0.00343  -0.0038  0.0384  1.0000  -2.8787   0.0000   0.0000   0.0000   0.2518
   5.500   0.6256   0.00961   0.00370  -0.0031  0.0338  1.0000  -3.0779   0.0000   0.0000   0.0000   0.2503
   5.750   0.6500   0.00992   0.00399  -0.0024  0.0300  1.0000  -3.2960   0.0000   0.0000   0.0000   0.2489
   6.000   0.6745   0.01024   0.00430  -0.0018  0.0269  1.0000  -3.5301   0.0000   0.0000   0.0000   0.2476
   6.250   0.6994   0.01052   0.00461  -0.0012  0.0247  1.0000  -3.7694   0.0000   0.0000   0.0000   0.2464
   6.500   0.7238   0.01095   0.00503  -0.0006  0.0224  1.0000  -4.0089   0.0000   0.0000   0.0000   0.2453
   6.750   0.7491   0.01126   0.00537  -0.0001  0.0211  1.0000  -4.2585   0.0000   0.0000   0.0000   0.2444
   7.000   0.7743   0.01160   0.00573   0.0004  0.0196  1.0000  -4.5160   0.0000   0.0000   0.0000   0.2436
   7.250   0.7985   0.01214   0.00631   0.0009  0.0182  1.0000  -4.7630   0.0000   0.0000   0.0000   0.2427
   7.500   0.8241   0.01246   0.00666   0.0013  0.0172  1.0000  -5.0317   0.0000   0.0000   0.0000   0.2420
   7.750   0.8493   0.01284   0.00707   0.0017  0.0162  1.0000  -5.3040   0.0000   0.0000   0.0000   0.2413
   8.000   0.8727   0.01355   0.00781   0.0023  0.0152  1.0000  -5.5723   0.0000   0.0000   0.0000   0.2404
   8.250   0.8972   0.01407   0.00841   0.0028  0.0146  1.0000  -5.8709   0.0000   0.0000   0.0000   0.2396
   8.500   0.9219   0.01454   0.00894   0.0033  0.0140  1.0000  -6.1806   0.0000   0.0000   0.0000   0.2389
   8.750   0.9462   0.01505   0.00951   0.0038  0.0134  1.0000  -6.4960   0.0000   0.0000   0.0000   0.2383
   9.000   0.9703   0.01559   0.01009   0.0043  0.0128  1.0000  -6.8195   0.0000   0.0000   0.0000   0.2376
   9.250   0.9926   0.01640   0.01096   0.0049  0.0123  1.0000  -7.1248   0.0000   0.0000   0.0000   0.2367
   9.500   1.0132   0.01750   0.01217   0.0058  0.0118  1.0000  -7.4012   0.0000   0.0000   0.0000   0.2356
   9.750   1.0371   0.01801   0.01276   0.0063  0.0114  1.0000  -7.7386   0.0000   0.0000   0.0000   0.2350
  10.000   1.0600   0.01866   0.01350   0.0069  0.0110  1.0000  -8.0680   0.0000   0.0000   0.0000   0.2343
  10.250   1.0822   0.01939   0.01433   0.0076  0.0106  1.0000  -8.3937   0.0000   0.0000   0.0000   0.2335
  10.500   1.1040   0.02013   0.01514   0.0082  0.0103  1.0000  -8.7272   0.0000   0.0000   0.0000   0.2327
  10.750   1.1253   0.02089   0.01598   0.0089  0.0100  1.0000  -9.0660   0.0000   0.0000   0.0000   0.2319
  11.000   1.1450   0.02185   0.01702   0.0097  0.0097  1.0000  -9.3907   0.0000   0.0000   0.0000   0.2310
  11.250   1.1579   0.02371   0.01905   0.0112  0.0093  1.0000  -9.6126   0.0000   0.0000   0.0000   0.2294
  11.500   1.1693   0.02571   0.02127   0.0128  0.0091  1.0000  -9.8083   0.0000   0.0000   0.0000   0.2278
  11.750   1.1859   0.02683   0.02254   0.0139  0.0090  1.0000  -10.1012   0.0000   0.0000   0.0000   0.2267
  12.000   1.2000   0.02816   0.02403   0.0151  0.0088  1.0000  -10.3683   0.0000   0.0000   0.0000   0.2255
  12.250   1.2113   0.02969   0.02573   0.0166  0.0087  1.0000  -10.6077   0.0000   0.0000   0.0000   0.2240
  12.500   1.2193   0.03141   0.02763   0.0182  0.0085  1.0000  -10.8174   0.0000   0.0000   0.0000   0.2224
  12.750   1.2212   0.03324   0.02963   0.0205  0.0084  1.0000  -11.0050   0.0000   0.0000   0.0000   0.2202
  13.000   1.2181   0.03532   0.03188   0.0228  0.0083  1.0000  -11.1466   0.0000   0.0000   0.0000   0.2179
  13.250   1.2124   0.03791   0.03465   0.0242  0.0082  1.0000  -11.2531   0.0000   0.0000   0.0000   0.2163
  13.500   1.2041   0.04125   0.03817   0.0241  0.0082  1.0000  -11.3171   0.0000   0.0000   0.0000   0.2157
  13.750   1.1929   0.04570   0.04280   0.0222  0.0081  1.0000  -11.3248   0.0000   0.0000   0.0000   0.2166
  14.000   1.1778   0.05177   0.04908   0.0180  0.0081  1.0000  -11.2500   0.0000   0.0000   0.0000   0.2194
  14.250   1.1563   0.06014   0.05766   0.0115  0.0081  1.0000  -11.0468   0.0000   0.0000   0.0000   0.2242
  14.500   1.1248   0.07139   0.06913   0.0030  0.0082  1.0000  -10.6510   0.0000   0.0000   0.0000   0.2310
  14.750   1.0799   0.08565   0.08358  -0.0063  0.0084  1.0000  -10.0085   0.0000   0.0000   0.0000   0.2393
  15.000   1.0171   0.10371   0.10182  -0.0165  0.0086  1.0000  -9.0189   0.0000   0.0000   0.0000   0.2496
  16.750   0.5601   0.17212   0.17054  -0.0282  0.0119  1.0000  -1.9421   0.0000   0.0000   0.0000   0.2903
  17.000   0.5612   0.17548   0.17391  -0.0297  0.0118  1.0000  -1.8648   0.0000   0.0000   0.0000   0.2927
  17.250   0.5575   0.18046   0.17889  -0.0322  0.0111  1.0000  -1.5759   0.0000   0.0000   0.0000   0.2980
  17.500   0.5604   0.18340   0.18183  -0.0335  0.0105  1.0000  -1.5437   0.0000   0.0000   0.0000   0.2998
  17.750   0.5640   0.18605   0.18448  -0.0347  0.0101  1.0000  -1.5418   0.0000   0.0000   0.0000   0.3013
  18.000   0.5680   0.18852   0.18696  -0.0358  0.0098  1.0000  -1.5598   0.0000   0.0000   0.0000   0.3026
  18.250   0.5724   0.19082   0.18926  -0.0369  0.0095  1.0000  -1.5987   0.0000   0.0000   0.0000   0.3037
  18.500   0.5774   0.19295   0.19140  -0.0378  0.0094  1.0000  -1.6610   0.0000   0.0000   0.0000   0.3044
  18.750   0.5832   0.19499   0.19344  -0.0385  0.0092  1.0000  -1.7563   0.0000   0.0000   0.0000   0.3045
  19.000   0.5847   0.19862   0.19708  -0.0397  0.0091  1.0000  -1.6680   0.0000   0.0000   0.0000   0.3064
  19.250   0.5865   0.20207   0.20053  -0.0413  0.0091  1.0000  -1.5912   0.0000   0.0000   0.0000   0.3088
  19.500   0.5871   0.20601   0.20447  -0.0432  0.0089  1.0000  -1.4497   0.0000   0.0000   0.0000   0.3120
  19.750   0.5899   0.20959   0.20806  -0.0447  0.0083  1.0000  -1.3665   0.0000   0.0000   0.0000   0.3141
  20.000   0.5936   0.21245   0.21091  -0.0460  0.0079  1.0000  -1.3666   0.0000   0.0000   0.0000   0.3155


