xflr5 v6.61

 Calculated polar for: NACA 0009

 1 1 Reynolds number fixed          Mach number fixed         

 xtrf =   1.000 (top)        1.000 (bottom)
 Mach =   0.000     Re =     0.860 e 6     Ncrit =   9.000

  alpha     CL        CD       CDp       Cm    Top Xtr Bot Xtr   Cpmin    Chinge    XCp    
 ------- -------- --------- --------- -------- ------- ------- -------- --------- ---------
 -10.000  -1.0511   0.02020   0.01498  -0.0080  1.0000  0.0116  -7.9135   0.0000   0.0000   0.0000   0.2331
  -9.750  -1.0276   0.01968   0.01436  -0.0075  1.0000  0.0119  -7.5802   0.0000   0.0000   0.0000   0.2338
  -9.500  -1.0108   0.01799   0.01253  -0.0063  1.0000  0.0126  -7.3481   0.0000   0.0000   0.0000   0.2352
  -9.250  -0.9879   0.01732   0.01182  -0.0057  1.0000  0.0131  -7.0245   0.0000   0.0000   0.0000   0.2359
  -9.000  -0.9646   0.01669   0.01112  -0.0051  1.0000  0.0136  -6.7102   0.0000   0.0000   0.0000   0.2367
  -8.750  -0.9410   0.01606   0.01042  -0.0046  1.0000  0.0142  -6.4051   0.0000   0.0000   0.0000   0.2374
  -8.500  -0.9169   0.01550   0.00977  -0.0040  1.0000  0.0147  -6.1021   0.0000   0.0000   0.0000   0.2381
  -8.250  -0.8941   0.01471   0.00889  -0.0033  1.0000  0.0153  -5.8229   0.0000   0.0000   0.0000   0.2391
  -8.000  -0.8709   0.01400   0.00816  -0.0027  1.0000  0.0162  -5.5328   0.0000   0.0000   0.0000   0.2400
  -7.750  -0.8461   0.01355   0.00767  -0.0023  1.0000  0.0171  -5.2450   0.0000   0.0000   0.0000   0.2407
  -7.500  -0.8209   0.01316   0.00723  -0.0018  1.0000  0.0181  -4.9805   0.0000   0.0000   0.0000   0.2414
  -7.250  -0.7970   0.01255   0.00657  -0.0012  1.0000  0.0193  -4.7360   0.0000   0.0000   0.0000   0.2423
  -7.000  -0.7721   0.01215   0.00616  -0.0008  1.0000  0.0207  -4.4772   0.0000   0.0000   0.0000   0.2431
  -6.750  -0.7468   0.01181   0.00577  -0.0003  1.0000  0.0220  -4.2262   0.0000   0.0000   0.0000   0.2439
  -6.500  -0.7227   0.01129   0.00523   0.0003  1.0000  0.0239  -3.9896   0.0000   0.0000   0.0000   0.2450
  -6.250  -0.6976   0.01098   0.00491   0.0009  1.0000  0.0259  -3.7454   0.0000   0.0000   0.0000   0.2460
  -6.000  -0.6732   0.01058   0.00451   0.0015  1.0000  0.0285  -3.5115   0.0000   0.0000   0.0000   0.2471
  -5.750  -0.6485   0.01029   0.00419   0.0021  1.0000  0.0316  -3.2799   0.0000   0.0000   0.0000   0.2484
  -5.500  -0.6240   0.00998   0.00390   0.0028  1.0000  0.0354  -3.0632   0.0000   0.0000   0.0000   0.2498
  -5.250  -0.5997   0.00967   0.00360   0.0035  1.0000  0.0404  -2.8662   0.0000   0.0000   0.0000   0.2513
  -5.000  -0.5756   0.00936   0.00333   0.0042  1.0000  0.0474  -2.6726   0.0000   0.0000   0.0000   0.2530
  -4.750  -0.5515   0.00907   0.00309   0.0049  1.0000  0.0571  -2.4826   0.0000   0.0000   0.0000   0.2548
  -4.500  -0.5276   0.00878   0.00287   0.0056  1.0000  0.0706  -2.2972   0.0000   0.0000   0.0000   0.2567
  -4.250  -0.5039   0.00848   0.00266   0.0064  1.0000  0.0903  -2.1163   0.0000   0.0000   0.0000   0.2589
  -4.000  -0.4802   0.00817   0.00248   0.0071  1.0000  0.1165  -1.9525   0.0000   0.0000   0.0000   0.2612
  -3.750  -0.4565   0.00786   0.00231   0.0078  1.0000  0.1493  -1.7975   0.0000   0.0000   0.0000   0.2636
  -3.500  -0.4288   0.00752   0.00216   0.0076  0.9993  0.1921  -1.6343   0.0000   0.0000   0.0000   0.2643
  -3.250  -0.3931   0.00713   0.00199   0.0056  0.9974  0.2462  -1.4566   0.0000   0.0000   0.0000   0.2610
  -3.000  -0.3577   0.00675   0.00184   0.0037  0.9947  0.3026  -1.2990   0.0000   0.0000   0.0000   0.2573
  -2.750  -0.3218   0.00641   0.00172   0.0018  0.9922  0.3598  -1.1457   0.0000   0.0000   0.0000   0.2525
  -2.500  -0.2864   0.00609   0.00160  -0.0000  0.9889  0.4153  -1.0114   0.0000   0.0000   0.0000   0.2469
  -2.250  -0.2506   0.00579   0.00150  -0.0019  0.9855  0.4695  -0.8860   0.0000   0.0000   0.0000   0.2395
  -2.000  -0.2163   0.00552   0.00142  -0.0033  0.9805  0.5209  -0.7753   0.0000   0.0000   0.0000   0.2316
  -1.750  -0.1844   0.00528   0.00134  -0.0042  0.9729  0.5695  -0.6805   0.0000   0.0000   0.0000   0.2243
  -1.500  -0.1547   0.00507   0.00128  -0.0045  0.9624  0.6150  -0.5995   0.0000   0.0000   0.0000   0.2182
  -1.250  -0.1272   0.00488   0.00124  -0.0042  0.9488  0.6581  -0.5303   0.0000   0.0000   0.0000   0.2140
  -1.000  -0.1011   0.00472   0.00120  -0.0036  0.9328  0.6986  -0.4720   0.0000   0.0000   0.0000   0.2119
  -0.250  -0.0254   0.00443   0.00112  -0.0009  0.8663  0.8068  -0.3427   0.0000   0.0000   0.0000   0.2126
   0.000  -0.0000   0.00441   0.00111   0.0000  0.8381  0.8381  -0.3106   0.0000   0.0000   0.0000   0.5211
   0.750   0.0758   0.00459   0.00116   0.0027  0.7368  0.9137  -0.4222   0.0000   0.0000   0.0000   0.2117
   1.000   0.1011   0.00472   0.00120   0.0036  0.6986  0.9328  -0.4720   0.0000   0.0000   0.0000   0.2119
   1.250   0.1272   0.00488   0.00124   0.0042  0.6581  0.9488  -0.5303   0.0000   0.0000   0.0000   0.2140
   1.500   0.1547   0.00507   0.00128   0.0045  0.6150  0.9624  -0.5995   0.0000   0.0000   0.0000   0.2182
   1.750   0.1844   0.00528   0.00134   0.0042  0.5695  0.9729  -0.6805   0.0000   0.0000   0.0000   0.2243
   2.000   0.2163   0.00552   0.00142   0.0033  0.5209  0.9806  -0.7753   0.0000   0.0000   0.0000   0.2316
   2.250   0.2506   0.00579   0.00150   0.0019  0.4695  0.9855  -0.8860   0.0000   0.0000   0.0000   0.2395
   2.500   0.2864   0.00609   0.00160   0.0000  0.4153  0.9889  -1.0114   0.0000   0.0000   0.0000   0.2469
   2.750   0.3218   0.00641   0.00172  -0.0018  0.3598  0.9922  -1.1457   0.0000   0.0000   0.0000   0.2525
   3.000   0.3577   0.00675   0.00184  -0.0037  0.3026  0.9947  -1.2990   0.0000   0.0000   0.0000   0.2573
   3.250   0.3931   0.00713   0.00199  -0.0056  0.2462  0.9974  -1.4566   0.0000   0.0000   0.0000   0.2610
   3.500   0.4288   0.00752   0.00216  -0.0076  0.1921  0.9994  -1.6343   0.0000   0.0000   0.0000   0.2643
   3.750   0.4565   0.00786   0.00231  -0.0078  0.1493  1.0000  -1.7973   0.0000   0.0000   0.0000   0.2636
   4.000   0.4802   0.00817   0.00248  -0.0071  0.1165  1.0000  -1.9524   0.0000   0.0000   0.0000   0.2612
   4.250   0.5039   0.00848   0.00266  -0.0064  0.0903  1.0000  -2.1162   0.0000   0.0000   0.0000   0.2589
   4.500   0.5276   0.00878   0.00287  -0.0056  0.0706  1.0000  -2.2970   0.0000   0.0000   0.0000   0.2567
   4.750   0.5515   0.00907   0.00309  -0.0049  0.0571  1.0000  -2.4825   0.0000   0.0000   0.0000   0.2547
   5.000   0.5755   0.00936   0.00332  -0.0042  0.0474  1.0000  -2.6724   0.0000   0.0000   0.0000   0.2529
   5.250   0.5997   0.00967   0.00360  -0.0035  0.0404  1.0000  -2.8661   0.0000   0.0000   0.0000   0.2513
   5.500   0.6240   0.00998   0.00389  -0.0028  0.0354  1.0000  -3.0630   0.0000   0.0000   0.0000   0.2498
   5.750   0.6485   0.01028   0.00419  -0.0021  0.0316  1.0000  -3.2798   0.0000   0.0000   0.0000   0.2484
   6.000   0.6732   0.01058   0.00451  -0.0015  0.0285  1.0000  -3.5114   0.0000   0.0000   0.0000   0.2471
   6.250   0.6976   0.01098   0.00490  -0.0008  0.0259  1.0000  -3.7453   0.0000   0.0000   0.0000   0.2459
   6.500   0.7227   0.01129   0.00523  -0.0003  0.0239  1.0000  -3.9895   0.0000   0.0000   0.0000   0.2450
   6.750   0.7468   0.01181   0.00577   0.0003  0.0220  1.0000  -4.2262   0.0000   0.0000   0.0000   0.2439
   7.000   0.7721   0.01215   0.00616   0.0008  0.0207  1.0000  -4.4772   0.0000   0.0000   0.0000   0.2431
   7.250   0.7971   0.01255   0.00657   0.0012  0.0193  1.0000  -4.7361   0.0000   0.0000   0.0000   0.2423
   7.500   0.8209   0.01316   0.00723   0.0018  0.0181  1.0000  -4.9805   0.0000   0.0000   0.0000   0.2414
   7.750   0.8461   0.01355   0.00767   0.0023  0.0171  1.0000  -5.2451   0.0000   0.0000   0.0000   0.2407
   8.000   0.8709   0.01400   0.00816   0.0027  0.0162  1.0000  -5.5329   0.0000   0.0000   0.0000   0.2400
   8.250   0.8941   0.01471   0.00889   0.0033  0.0153  1.0000  -5.8230   0.0000   0.0000   0.0000   0.2391
   8.500   0.9169   0.01550   0.00977   0.0040  0.0147  1.0000  -6.1023   0.0000   0.0000   0.0000   0.2382
   8.750   0.9410   0.01606   0.01042   0.0046  0.0142  1.0000  -6.4053   0.0000   0.0000   0.0000   0.2374
   9.000   0.9646   0.01669   0.01112   0.0051  0.0136  1.0000  -6.7105   0.0000   0.0000   0.0000   0.2367
   9.250   0.9880   0.01732   0.01182   0.0057  0.0131  1.0000  -7.0249   0.0000   0.0000   0.0000   0.2359
   9.500   1.0108   0.01799   0.01253   0.0063  0.0126  1.0000  -7.3485   0.0000   0.0000   0.0000   0.2352
   9.750   1.0277   0.01968   0.01436   0.0075  0.0119  1.0000  -7.5807   0.0000   0.0000   0.0000   0.2338
  10.000   1.0512   0.02020   0.01498   0.0080  0.0116  1.0000  -7.9140   0.0000   0.0000   0.0000   0.2332
  10.250   1.0728   0.02101   0.01591   0.0088  0.0113  1.0000  -8.2227   0.0000   0.0000   0.0000   0.2323
  10.500   1.0932   0.02196   0.01699   0.0096  0.0109  1.0000  -8.5216   0.0000   0.0000   0.0000   0.2314
  10.750   1.1129   0.02297   0.01813   0.0104  0.0106  1.0000  -8.8200   0.0000   0.0000   0.0000   0.2305
  11.000   1.1319   0.02398   0.01925   0.0113  0.0103  1.0000  -9.1246   0.0000   0.0000   0.0000   0.2295
  11.250   1.1503   0.02500   0.02037   0.0122  0.0100  1.0000  -9.4342   0.0000   0.0000   0.0000   0.2285
  11.500   1.1671   0.02613   0.02160   0.0132  0.0098  1.0000  -9.7368   0.0000   0.0000   0.0000   0.2275
  11.750   1.1803   0.02765   0.02325   0.0146  0.0095  1.0000  -9.9959   0.0000   0.0000   0.0000   0.2261
  12.000   1.1839   0.03026   0.02609   0.0166  0.0093  1.0000  -10.1193   0.0000   0.0000   0.0000   0.2241
  12.250   1.1767   0.03379   0.02995   0.0193  0.0091  1.0000  -10.1078   0.0000   0.0000   0.0000   0.2214
  12.500   1.1775   0.03551   0.03185   0.0217  0.0091  1.0000  -10.2599   0.0000   0.0000   0.0000   0.2191
  12.750   1.1739   0.03772   0.03424   0.0236  0.0090  1.0000  -10.3844   0.0000   0.0000   0.0000   0.2170
  13.000   1.1668   0.04060   0.03732   0.0244  0.0090  1.0000  -10.4623   0.0000   0.0000   0.0000   0.2158
  13.250   1.1565   0.04447   0.04138   0.0235  0.0089  1.0000  -10.4850   0.0000   0.0000   0.0000   0.2158
  13.500   1.1426   0.04971   0.04683   0.0205  0.0089  1.0000  -10.4397   0.0000   0.0000   0.0000   0.2177
  13.750   1.1246   0.05685   0.05418   0.0150  0.0089  1.0000  -10.3031   0.0000   0.0000   0.0000   0.2218
  14.000   1.1003   0.06628   0.06381   0.0075  0.0089  1.0000  -10.0394   0.0000   0.0000   0.0000   0.2278
  14.250   1.0665   0.07820   0.07592  -0.0011  0.0090  1.0000  -9.5980   0.0000   0.0000   0.0000   0.2353
  14.500   1.0156   0.09368   0.09158  -0.0107  0.0091  1.0000  -8.8471   0.0000   0.0000   0.0000   0.2446
  15.000   0.7529   0.18023   0.17839  -0.0491  0.0128  1.0000  -2.4089   0.0000   0.0000   0.0000   0.3032
  15.250   0.7595   0.18345   0.18162  -0.0506  0.0125  1.0000  -2.4725   0.0000   0.0000   0.0000   0.3044
  15.500   0.7668   0.18638   0.18455  -0.0520  0.0123  1.0000  -2.5640   0.0000   0.0000   0.0000   0.3051
  15.750   0.7745   0.18918   0.18735  -0.0531  0.0122  1.0000  -2.6682   0.0000   0.0000   0.0000   0.3056
  16.000   0.7789   0.19287   0.19104  -0.0543  0.0119  1.0000  -2.7198   0.0000   0.0000   0.0000   0.3063
  16.250   0.7842   0.19753   0.19570  -0.0566  0.0119  1.0000  -2.6483   0.0000   0.0000   0.0000   0.3085
  16.500   0.7895   0.20236   0.20052  -0.0591  0.0118  1.0000  -2.5511   0.0000   0.0000   0.0000   0.3110
  16.750   0.7923   0.20964   0.20779  -0.0635  0.0109  1.0000  -2.1835   0.0000   0.0000   0.0000   0.3164
  17.000   0.7993   0.21346   0.21161  -0.0656  0.0103  1.0000  -2.1649   0.0000   0.0000   0.0000   0.3180
  17.250   0.8067   0.21694   0.21510  -0.0675  0.0100  1.0000  -2.1770   0.0000   0.0000   0.0000   0.3193
  17.500   0.8144   0.22016   0.21832  -0.0693  0.0097  1.0000  -2.2134   0.0000   0.0000   0.0000   0.3203
  17.750   0.8223   0.22314   0.22130  -0.0710  0.0095  1.0000  -2.2739   0.0000   0.0000   0.0000   0.3212
  18.000   0.8305   0.22590   0.22406  -0.0725  0.0094  1.0000  -2.3713   0.0000   0.0000   0.0000   0.3217
  18.250   0.8387   0.22853   0.22670  -0.0735  0.0092  1.0000  -2.5084   0.0000   0.0000   0.0000   0.3215
  18.500   0.8447   0.23330   0.23146  -0.0758  0.0091  1.0000  -2.4353   0.0000   0.0000   0.0000   0.3234
  18.750   0.8517   0.23765   0.23582  -0.0785  0.0091  1.0000  -2.3669   0.0000   0.0000   0.0000   0.3255
  19.000   0.8584   0.24257   0.24072  -0.0817  0.0090  1.0000  -2.2317   0.0000   0.0000   0.0000   0.3284
  19.250   0.8666   0.24767   0.24583  -0.0848  0.0083  1.0000  -2.0809   0.0000   0.0000   0.0000   0.3309
  19.500   0.8747   0.25121   0.24936  -0.0870  0.0078  1.0000  -2.0934   0.0000   0.0000   0.0000   0.3321
  19.750   0.8828   0.25456   0.25272  -0.0892  0.0076  1.0000  -2.1174   0.0000   0.0000   0.0000   0.3332
  20.000   0.8910   0.25785   0.25601  -0.0913  0.0074  1.0000  -2.1516   0.0000   0.0000   0.0000   0.3343


