xflr5 v6.61

 Calculated polar for: NACA 0009

 1 1 Reynolds number fixed          Mach number fixed         

 xtrf =   1.000 (top)        1.000 (bottom)
 Mach =   0.000     Re =     0.800 e 6     Ncrit =   9.000

  alpha     CL        CD       CDp       Cm    Top Xtr Bot Xtr   Cpmin    Chinge    XCp    
 ------- -------- --------- --------- -------- ------- ------- -------- --------- ---------
 -10.000  -1.0449   0.02134   0.01607  -0.0088  1.0000  0.0119  -7.8084   0.0000   0.0000   0.0000   0.2324
  -9.750  -1.0292   0.01947   0.01405  -0.0075  1.0000  0.0125  -7.5897   0.0000   0.0000   0.0000   0.2339
  -9.500  -1.0069   0.01875   0.01329  -0.0069  1.0000  0.0130  -7.2647   0.0000   0.0000   0.0000   0.2346
  -9.250  -0.9841   0.01807   0.01254  -0.0063  1.0000  0.0135  -6.9494   0.0000   0.0000   0.0000   0.2353
  -9.000  -0.9612   0.01735   0.01173  -0.0056  1.0000  0.0140  -6.6499   0.0000   0.0000   0.0000   0.2361
  -8.750  -0.9378   0.01668   0.01097  -0.0050  1.0000  0.0146  -6.3533   0.0000   0.0000   0.0000   0.2369
  -8.500  -0.9134   0.01616   0.01035  -0.0045  1.0000  0.0150  -6.0497   0.0000   0.0000   0.0000   0.2376
  -8.250  -0.8930   0.01498   0.00912  -0.0036  1.0000  0.0159  -5.7962   0.0000   0.0000   0.0000   0.2388
  -8.000  -0.8687   0.01446   0.00856  -0.0031  1.0000  0.0167  -5.4937   0.0000   0.0000   0.0000   0.2396
  -7.750  -0.8441   0.01398   0.00803  -0.0026  1.0000  0.0176  -5.2114   0.0000   0.0000   0.0000   0.2403
  -7.500  -0.8186   0.01365   0.00762  -0.0022  1.0000  0.0185  -4.9467   0.0000   0.0000   0.0000   0.2409
  -7.250  -0.7957   0.01288   0.00684  -0.0015  1.0000  0.0200  -4.7094   0.0000   0.0000   0.0000   0.2420
  -7.000  -0.7707   0.01249   0.00641  -0.0010  1.0000  0.0213  -4.4550   0.0000   0.0000   0.0000   0.2428
  -6.750  -0.7460   0.01204   0.00590  -0.0005  1.0000  0.0227  -4.2142   0.0000   0.0000   0.0000   0.2437
  -6.500  -0.7216   0.01156   0.00543   0.0001  1.0000  0.0245  -3.9726   0.0000   0.0000   0.0000   0.2447
  -6.250  -0.6963   0.01128   0.00511   0.0006  1.0000  0.0264  -3.7301   0.0000   0.0000   0.0000   0.2456
  -6.000  -0.6722   0.01083   0.00467   0.0013  1.0000  0.0294  -3.4984   0.0000   0.0000   0.0000   0.2469
  -5.750  -0.6478   0.01047   0.00430   0.0019  1.0000  0.0326  -3.2707   0.0000   0.0000   0.0000   0.2481
  -5.500  -0.6233   0.01016   0.00399   0.0026  1.0000  0.0364  -3.0564   0.0000   0.0000   0.0000   0.2495
  -5.250  -0.5990   0.00984   0.00369   0.0033  1.0000  0.0417  -2.8598   0.0000   0.0000   0.0000   0.2510
  -5.000  -0.5749   0.00952   0.00341   0.0040  1.0000  0.0490  -2.6665   0.0000   0.0000   0.0000   0.2527
  -4.750  -0.5508   0.00923   0.00316   0.0047  1.0000  0.0590  -2.4774   0.0000   0.0000   0.0000   0.2544
  -4.500  -0.5269   0.00892   0.00293   0.0055  1.0000  0.0735  -2.2926   0.0000   0.0000   0.0000   0.2564
  -4.250  -0.5032   0.00860   0.00272   0.0062  1.0000  0.0947  -2.1121   0.0000   0.0000   0.0000   0.2585
  -4.000  -0.4795   0.00828   0.00252   0.0069  1.0000  0.1225  -1.9493   0.0000   0.0000   0.0000   0.2608
  -3.750  -0.4559   0.00795   0.00235   0.0076  1.0000  0.1579  -1.7945   0.0000   0.0000   0.0000   0.2632
  -3.500  -0.4320   0.00763   0.00221   0.0082  1.0000  0.1997  -1.6428   0.0000   0.0000   0.0000   0.2657
  -3.250  -0.3999   0.00725   0.00205   0.0070  0.9986  0.2526  -1.4735   0.0000   0.0000   0.0000   0.2644
  -3.000  -0.3641   0.00688   0.00191   0.0051  0.9962  0.3109  -1.3142   0.0000   0.0000   0.0000   0.2607
  -2.750  -0.3280   0.00653   0.00179   0.0030  0.9936  0.3694  -1.1592   0.0000   0.0000   0.0000   0.2562
  -2.500  -0.2923   0.00621   0.00167   0.0012  0.9902  0.4261  -1.0237   0.0000   0.0000   0.0000   0.2510
  -2.250  -0.2556   0.00591   0.00158  -0.0009  0.9874  0.4817  -0.8951   0.0000   0.0000   0.0000   0.2436
  -2.000  -0.2209   0.00563   0.00149  -0.0024  0.9825  0.5337  -0.7829   0.0000   0.0000   0.0000   0.2360
  -1.750  -0.1877   0.00538   0.00141  -0.0036  0.9759  0.5836  -0.6855   0.0000   0.0000   0.0000   0.2280
  -1.500  -0.1565   0.00516   0.00135  -0.0042  0.9670  0.6301  -0.6019   0.0000   0.0000   0.0000   0.2201
  -1.250  -0.1272   0.00496   0.00130  -0.0043  0.9556  0.6738  -0.5305   0.0000   0.0000   0.0000   0.2129
  -1.000  -0.1006   0.00479   0.00127  -0.0038  0.9403  0.7144  -0.4716   0.0000   0.0000   0.0000   0.2093
  -0.750  -0.0751   0.00465   0.00123  -0.0030  0.9227  0.7521  -0.4216   0.0000   0.0000   0.0000   0.2076
  -0.500  -0.0500   0.00456   0.00121  -0.0020  0.9018  0.7877  -0.3791   0.0000   0.0000   0.0000   0.2072
  -0.250  -0.0251   0.00449   0.00119  -0.0010  0.8778  0.8205  -0.3425   0.0000   0.0000   0.0000   0.2079
   0.000   0.0000   0.00447   0.00119  -0.0000  0.8507  0.8507  -0.3106   0.0000   0.0000   0.0000   0.4759
   0.250   0.0251   0.00449   0.00119   0.0010  0.8205  0.8778  -0.3425   0.0000   0.0000   0.0000   0.2079
   0.500   0.0500   0.00456   0.00121   0.0020  0.7877  0.9018  -0.3791   0.0000   0.0000   0.0000   0.2072
   0.750   0.0751   0.00465   0.00123   0.0030  0.7522  0.9226  -0.4216   0.0000   0.0000   0.0000   0.2076
   1.000   0.1006   0.00479   0.00127   0.0038  0.7144  0.9403  -0.4716   0.0000   0.0000   0.0000   0.2093
   1.250   0.1272   0.00496   0.00130   0.0043  0.6738  0.9556  -0.5305   0.0000   0.0000   0.0000   0.2129
   1.500   0.1565   0.00516   0.00135   0.0042  0.6301  0.9670  -0.6019   0.0000   0.0000   0.0000   0.2201
   1.750   0.1877   0.00538   0.00141   0.0036  0.5836  0.9759  -0.6855   0.0000   0.0000   0.0000   0.2280
   2.000   0.2209   0.00563   0.00149   0.0024  0.5338  0.9825  -0.7829   0.0000   0.0000   0.0000   0.2360
   2.250   0.2556   0.00591   0.00158   0.0009  0.4817  0.9874  -0.8952   0.0000   0.0000   0.0000   0.2436
   2.500   0.2923   0.00621   0.00167  -0.0012  0.4261  0.9902  -1.0237   0.0000   0.0000   0.0000   0.2510
   2.750   0.3280   0.00653   0.00179  -0.0030  0.3694  0.9936  -1.1592   0.0000   0.0000   0.0000   0.2562
   3.000   0.3641   0.00688   0.00191  -0.0051  0.3109  0.9962  -1.3142   0.0000   0.0000   0.0000   0.2607
   3.250   0.3999   0.00725   0.00205  -0.0070  0.2526  0.9986  -1.4735   0.0000   0.0000   0.0000   0.2644
   3.500   0.4320   0.00763   0.00221  -0.0082  0.1997  1.0000  -1.6427   0.0000   0.0000   0.0000   0.2657
   3.750   0.4558   0.00795   0.00235  -0.0076  0.1579  1.0000  -1.7943   0.0000   0.0000   0.0000   0.2632
   4.000   0.4795   0.00828   0.00252  -0.0069  0.1226  1.0000  -1.9491   0.0000   0.0000   0.0000   0.2608
   4.250   0.5031   0.00860   0.00272  -0.0062  0.0947  1.0000  -2.1120   0.0000   0.0000   0.0000   0.2585
   4.500   0.5269   0.00892   0.00293  -0.0055  0.0735  1.0000  -2.2925   0.0000   0.0000   0.0000   0.2564
   4.750   0.5507   0.00923   0.00316  -0.0047  0.0590  1.0000  -2.4772   0.0000   0.0000   0.0000   0.2544
   5.000   0.5748   0.00952   0.00341  -0.0040  0.0490  1.0000  -2.6664   0.0000   0.0000   0.0000   0.2526
   5.250   0.5990   0.00984   0.00369  -0.0033  0.0417  1.0000  -2.8597   0.0000   0.0000   0.0000   0.2510
   5.500   0.6233   0.01016   0.00398  -0.0026  0.0365  1.0000  -3.0563   0.0000   0.0000   0.0000   0.2495
   5.750   0.6478   0.01047   0.00430  -0.0019  0.0326  1.0000  -3.2706   0.0000   0.0000   0.0000   0.2481
   6.000   0.6722   0.01083   0.00467  -0.0013  0.0294  1.0000  -3.4983   0.0000   0.0000   0.0000   0.2468
   6.250   0.6963   0.01128   0.00511  -0.0006  0.0264  1.0000  -3.7300   0.0000   0.0000   0.0000   0.2456
   6.500   0.7216   0.01156   0.00543  -0.0001  0.0245  1.0000  -3.9726   0.0000   0.0000   0.0000   0.2447
   6.750   0.7460   0.01203   0.00590   0.0005  0.0227  1.0000  -4.2142   0.0000   0.0000   0.0000   0.2437
   7.000   0.7707   0.01249   0.00641   0.0010  0.0213  1.0000  -4.4550   0.0000   0.0000   0.0000   0.2428
   7.250   0.7957   0.01288   0.00684   0.0015  0.0200  1.0000  -4.7094   0.0000   0.0000   0.0000   0.2420
   7.500   0.8186   0.01365   0.00762   0.0022  0.0185  1.0000  -4.9467   0.0000   0.0000   0.0000   0.2409
   7.750   0.8441   0.01398   0.00803   0.0026  0.0176  1.0000  -5.2115   0.0000   0.0000   0.0000   0.2403
   8.000   0.8687   0.01446   0.00856   0.0031  0.0167  1.0000  -5.4939   0.0000   0.0000   0.0000   0.2396
   8.250   0.8930   0.01498   0.00912   0.0035  0.0159  1.0000  -5.7964   0.0000   0.0000   0.0000   0.2388
   8.500   0.9135   0.01616   0.01035   0.0045  0.0150  1.0000  -6.0499   0.0000   0.0000   0.0000   0.2376
   8.750   0.9378   0.01668   0.01097   0.0050  0.0146  1.0000  -6.3535   0.0000   0.0000   0.0000   0.2369
   9.000   0.9612   0.01735   0.01173   0.0056  0.0140  1.0000  -6.6502   0.0000   0.0000   0.0000   0.2361
   9.250   0.9841   0.01807   0.01254   0.0063  0.0135  1.0000  -6.9498   0.0000   0.0000   0.0000   0.2353
   9.500   1.0070   0.01875   0.01329   0.0069  0.0130  1.0000  -7.2651   0.0000   0.0000   0.0000   0.2346
   9.750   1.0293   0.01947   0.01405   0.0074  0.0125  1.0000  -7.5901   0.0000   0.0000   0.0000   0.2339
  10.000   1.0450   0.02134   0.01607   0.0088  0.0119  1.0000  -7.8090   0.0000   0.0000   0.0000   0.2324
  10.250   1.0672   0.02203   0.01690   0.0094  0.0116  1.0000  -8.1239   0.0000   0.0000   0.0000   0.2317
  10.500   1.0872   0.02304   0.01806   0.0103  0.0113  1.0000  -8.4100   0.0000   0.0000   0.0000   0.2307
  10.750   1.1058   0.02420   0.01938   0.0113  0.0110  1.0000  -8.6852   0.0000   0.0000   0.0000   0.2297
  11.000   1.1234   0.02543   0.02076   0.0123  0.0106  1.0000  -8.9571   0.0000   0.0000   0.0000   0.2286
  11.250   1.1398   0.02671   0.02219   0.0134  0.0104  1.0000  -9.2275   0.0000   0.0000   0.0000   0.2275
  11.500   1.1551   0.02800   0.02362   0.0145  0.0101  1.0000  -9.5003   0.0000   0.0000   0.0000   0.2263
  11.750   1.1691   0.02933   0.02508   0.0157  0.0099  1.0000  -9.7710   0.0000   0.0000   0.0000   0.2251
  12.000   1.1806   0.03080   0.02668   0.0170  0.0097  1.0000  -10.0242   0.0000   0.0000   0.0000   0.2237
  12.250   1.1874   0.03264   0.02866   0.0187  0.0095  1.0000  -10.2271   0.0000   0.0000   0.0000   0.2221
  12.500   1.1841   0.03499   0.03120   0.0213  0.0094  1.0000  -10.3260   0.0000   0.0000   0.0000   0.2195
  12.750   1.1716   0.03805   0.03447   0.0238  0.0093  1.0000  -10.3438   0.0000   0.0000   0.0000   0.2168
  13.000   1.1547   0.04206   0.03872   0.0245  0.0093  1.0000  -10.2944   0.0000   0.0000   0.0000   0.2154
  13.250   1.1365   0.04715   0.04405   0.0228  0.0092  1.0000  -10.2066   0.0000   0.0000   0.0000   0.2161
  13.500   1.1190   0.05338   0.05050   0.0186  0.0092  1.0000  -10.0970   0.0000   0.0000   0.0000   0.2190
  13.750   1.1024   0.06063   0.05794   0.0129  0.0092  1.0000  -9.9695   0.0000   0.0000   0.0000   0.2235
  14.000   1.0860   0.06865   0.06612   0.0065  0.0093  1.0000  -9.8179   0.0000   0.0000   0.0000   0.2287
  14.250   1.0681   0.07737   0.07499   0.0001  0.0093  1.0000  -9.6210   0.0000   0.0000   0.0000   0.2342
  14.500   1.0431   0.08778   0.08557  -0.0068  0.0094  1.0000  -9.2870   0.0000   0.0000   0.0000   0.2405
  20.000   0.5984   0.21033   0.20864  -0.0446  0.0092  1.0000  -1.6416   0.0000   0.0000   0.0000   0.3120


