xflr5 v6.61

 Calculated polar for: NACA 0012

 1 1 Reynolds number fixed          Mach number fixed         

 xtrf =   1.000 (top)        1.000 (bottom)
 Mach =   0.000     Re =     0.420 e 6     Ncrit =   9.000

  alpha     CL        CD       CDp       Cm    Top Xtr Bot Xtr   Cpmin    Chinge    XCp    
 ------- -------- --------- --------- -------- ------- ------- -------- --------- ---------
 -10.000  -1.0320   0.02098   0.01411  -0.0124  1.0000  0.0356  -5.1259   0.0000   0.0000   0.0000   0.2268
  -9.750  -1.0161   0.01991   0.01306  -0.0109  1.0000  0.0371  -4.9663   0.0000   0.0000   0.0000   0.2285
  -9.500  -0.9961   0.01930   0.01243  -0.0098  1.0000  0.0388  -4.7840   0.0000   0.0000   0.0000   0.2297
  -9.250  -0.9748   0.01881   0.01184  -0.0087  1.0000  0.0407  -4.6029   0.0000   0.0000   0.0000   0.2308
  -9.000  -0.9571   0.01796   0.01102  -0.0073  1.0000  0.0427  -4.4375   0.0000   0.0000   0.0000   0.2325
  -8.750  -0.9365   0.01744   0.01046  -0.0061  1.0000  0.0449  -4.2606   0.0000   0.0000   0.0000   0.2339
  -8.500  -0.9173   0.01678   0.00977  -0.0047  1.0000  0.0473  -4.0958   0.0000   0.0000   0.0000   0.2355
  -8.250  -0.8973   0.01625   0.00924  -0.0034  1.0000  0.0500  -3.9242   0.0000   0.0000   0.0000   0.2371
  -8.000  -0.8775   0.01571   0.00868  -0.0020  1.0000  0.0532  -3.7598   0.0000   0.0000   0.0000   0.2389
  -7.750  -0.8571   0.01527   0.00823  -0.0007  1.0000  0.0570  -3.6048   0.0000   0.0000   0.0000   0.2406
  -7.500  -0.8375   0.01474   0.00772   0.0007  1.0000  0.0610  -3.4563   0.0000   0.0000   0.0000   0.2426
  -7.250  -0.8172   0.01429   0.00726   0.0021  1.0000  0.0659  -3.3079   0.0000   0.0000   0.0000   0.2445
  -7.000  -0.7967   0.01388   0.00685   0.0034  1.0000  0.0717  -3.1591   0.0000   0.0000   0.0000   0.2465
  -6.750  -0.7765   0.01345   0.00645   0.0048  1.0000  0.0787  -3.0127   0.0000   0.0000   0.0000   0.2486
  -6.500  -0.7563   0.01302   0.00607   0.0061  1.0000  0.0870  -2.8687   0.0000   0.0000   0.0000   0.2508
  -6.250  -0.7360   0.01261   0.00572   0.0075  1.0000  0.0972  -2.7267   0.0000   0.0000   0.0000   0.2531
  -6.000  -0.7154   0.01224   0.00541   0.0088  1.0000  0.1100  -2.5963   0.0000   0.0000   0.0000   0.2554
  -5.750  -0.6946   0.01187   0.00511   0.0100  1.0000  0.1257  -2.4672   0.0000   0.0000   0.0000   0.2577
  -5.500  -0.6738   0.01151   0.00485   0.0112  1.0000  0.1445  -2.3392   0.0000   0.0000   0.0000   0.2601
  -5.250  -0.6527   0.01116   0.00461   0.0123  1.0000  0.1666  -2.2125   0.0000   0.0000   0.0000   0.2626
  -5.000  -0.6312   0.01084   0.00441   0.0133  1.0000  0.1917  -2.0872   0.0000   0.0000   0.0000   0.2651
  -4.750  -0.6095   0.01054   0.00423   0.0143  1.0000  0.2189  -1.9725   0.0000   0.0000   0.0000   0.2676
  -4.500  -0.5798   0.01023   0.00406   0.0135  0.9986  0.2516  -1.8414   0.0000   0.0000   0.0000   0.2677
  -4.250  -0.5416   0.00988   0.00389   0.0111  0.9955  0.2896  -1.6941   0.0000   0.0000   0.0000   0.2649
  -4.000  -0.5032   0.00957   0.00373   0.0086  0.9923  0.3281  -1.5589   0.0000   0.0000   0.0000   0.2617
  -3.750  -0.4652   0.00926   0.00359   0.0063  0.9884  0.3662  -1.4292   0.0000   0.0000   0.0000   0.2582
  -3.500  -0.4276   0.00898   0.00345   0.0041  0.9842  0.4035  -1.3095   0.0000   0.0000   0.0000   0.2543
  -3.250  -0.3885   0.00870   0.00331   0.0016  0.9807  0.4409  -1.1929   0.0000   0.0000   0.0000   0.2490
  -3.000  -0.3517   0.00843   0.00318  -0.0003  0.9755  0.4761  -1.0904   0.0000   0.0000   0.0000   0.2439
  -2.750  -0.3119   0.00818   0.00306  -0.0029  0.9722  0.5121  -0.9899   0.0000   0.0000   0.0000   0.2357
  -2.500  -0.2771   0.00792   0.00293  -0.0043  0.9656  0.5451  -0.9038   0.0000   0.0000   0.0000   0.2296
  -2.000  -0.2127   0.00747   0.00272  -0.0057  0.9490  0.6075  -0.7582   0.0000   0.0000   0.0000   0.2184
  -1.750  -0.1833   0.00727   0.00262  -0.0056  0.9383  0.6369  -0.6974   0.0000   0.0000   0.0000   0.2142
  -1.500  -0.1554   0.00709   0.00253  -0.0052  0.9262  0.6654  -0.6432   0.0000   0.0000   0.0000   0.2113
  -1.250  -0.1288   0.00693   0.00246  -0.0046  0.9123  0.6929  -0.5954   0.0000   0.0000   0.0000   0.2096
  -1.000  -0.1029   0.00681   0.00240  -0.0037  0.8959  0.7198  -0.5521   0.0000   0.0000   0.0000   0.2091
  -0.750  -0.0770   0.00670   0.00234  -0.0028  0.8792  0.7460  -0.5128   0.0000   0.0000   0.0000   0.2085
  -0.500  -0.0514   0.00662   0.00231  -0.0019  0.8600  0.7712  -0.4770   0.0000   0.0000   0.0000   0.2085
  -0.250  -0.0257   0.00658   0.00229  -0.0009  0.8402  0.7951  -0.4439   0.0000   0.0000   0.0000   0.2092
   0.000   0.0000   0.00656   0.00229   0.0000  0.8181  0.8181  -0.4135   0.0000   0.0000   0.0000  -0.7158
   0.250   0.0257   0.00658   0.00229   0.0009  0.7951  0.8402  -0.4439   0.0000   0.0000   0.0000   0.2092
   0.500   0.0514   0.00662   0.00231   0.0019  0.7712  0.8600  -0.4770   0.0000   0.0000   0.0000   0.2085
   0.750   0.0770   0.00670   0.00234   0.0028  0.7460  0.8792  -0.5128   0.0000   0.0000   0.0000   0.2085
   1.000   0.1029   0.00681   0.00240   0.0037  0.7198  0.8959  -0.5521   0.0000   0.0000   0.0000   0.2091
   1.250   0.1288   0.00693   0.00246   0.0046  0.6929  0.9123  -0.5954   0.0000   0.0000   0.0000   0.2096
   1.500   0.1554   0.00709   0.00253   0.0053  0.6654  0.9262  -0.6432   0.0000   0.0000   0.0000   0.2112
   1.750   0.1833   0.00727   0.00262   0.0056  0.6369  0.9383  -0.6974   0.0000   0.0000   0.0000   0.2142
   2.000   0.2127   0.00747   0.00272   0.0057  0.6075  0.9490  -0.7582   0.0000   0.0000   0.0000   0.2184
   2.250   0.2439   0.00769   0.00282   0.0052  0.5768  0.9580  -0.8267   0.0000   0.0000   0.0000   0.2237
   2.500   0.2771   0.00792   0.00293   0.0043  0.5451  0.9656  -0.9038   0.0000   0.0000   0.0000   0.2296
   2.750   0.3119   0.00818   0.00306   0.0029  0.5121  0.9722  -0.9898   0.0000   0.0000   0.0000   0.2357
   3.000   0.3517   0.00843   0.00318   0.0003  0.4761  0.9755  -1.0904   0.0000   0.0000   0.0000   0.2439
   3.250   0.3885   0.00870   0.00331  -0.0016  0.4409  0.9807  -1.1929   0.0000   0.0000   0.0000   0.2490
   3.500   0.4276   0.00898   0.00345  -0.0041  0.4035  0.9842  -1.3095   0.0000   0.0000   0.0000   0.2543
   3.750   0.4653   0.00926   0.00358  -0.0063  0.3662  0.9884  -1.4292   0.0000   0.0000   0.0000   0.2582
   4.000   0.5032   0.00957   0.00373  -0.0086  0.3281  0.9923  -1.5589   0.0000   0.0000   0.0000   0.2617
   4.250   0.5417   0.00988   0.00389  -0.0111  0.2896  0.9955  -1.6942   0.0000   0.0000   0.0000   0.2649
   4.500   0.5798   0.01022   0.00406  -0.0135  0.2516  0.9987  -1.8414   0.0000   0.0000   0.0000   0.2677
   4.750   0.6094   0.01054   0.00423  -0.0142  0.2189  1.0000  -1.9723   0.0000   0.0000   0.0000   0.2675
   5.000   0.6311   0.01084   0.00441  -0.0133  0.1918  1.0000  -2.0870   0.0000   0.0000   0.0000   0.2650
   5.250   0.6526   0.01116   0.00461  -0.0123  0.1666  1.0000  -2.2123   0.0000   0.0000   0.0000   0.2626
   5.500   0.6737   0.01151   0.00485  -0.0112  0.1446  1.0000  -2.3390   0.0000   0.0000   0.0000   0.2601
   5.750   0.6946   0.01187   0.00511  -0.0100  0.1258  1.0000  -2.4670   0.0000   0.0000   0.0000   0.2577
   6.000   0.7153   0.01224   0.00541  -0.0087  0.1100  1.0000  -2.5962   0.0000   0.0000   0.0000   0.2554
   6.250   0.7359   0.01261   0.00572  -0.0075  0.0972  1.0000  -2.7266   0.0000   0.0000   0.0000   0.2531
   6.500   0.7563   0.01302   0.00607  -0.0061  0.0870  1.0000  -2.8685   0.0000   0.0000   0.0000   0.2508
   6.750   0.7764   0.01345   0.00645  -0.0048  0.0787  1.0000  -3.0126   0.0000   0.0000   0.0000   0.2486
   7.000   0.7967   0.01387   0.00685  -0.0034  0.0717  1.0000  -3.1589   0.0000   0.0000   0.0000   0.2465
   7.250   0.8172   0.01428   0.00726  -0.0021  0.0659  1.0000  -3.3077   0.0000   0.0000   0.0000   0.2445
   7.500   0.8374   0.01474   0.00772  -0.0007  0.0610  1.0000  -3.4562   0.0000   0.0000   0.0000   0.2426
   7.750   0.8570   0.01527   0.00822   0.0007  0.0570  1.0000  -3.6047   0.0000   0.0000   0.0000   0.2406
   8.000   0.8775   0.01571   0.00868   0.0020  0.0532  1.0000  -3.7597   0.0000   0.0000   0.0000   0.2389
   8.250   0.8972   0.01625   0.00924   0.0034  0.0500  1.0000  -3.9241   0.0000   0.0000   0.0000   0.2371
   8.500   0.9173   0.01678   0.00977   0.0047  0.0473  1.0000  -4.0958   0.0000   0.0000   0.0000   0.2355
   8.750   0.9365   0.01744   0.01046   0.0061  0.0449  1.0000  -4.2607   0.0000   0.0000   0.0000   0.2339
   9.000   0.9572   0.01796   0.01102   0.0073  0.0427  1.0000  -4.4376   0.0000   0.0000   0.0000   0.2325
   9.250   0.9748   0.01881   0.01183   0.0087  0.0407  1.0000  -4.6031   0.0000   0.0000   0.0000   0.2309
   9.500   0.9962   0.01930   0.01243   0.0098  0.0388  1.0000  -4.7843   0.0000   0.0000   0.0000   0.2297
   9.750   1.0162   0.01991   0.01306   0.0109  0.0371  1.0000  -4.9666   0.0000   0.0000   0.0000   0.2285
  10.000   1.0321   0.02098   0.01411   0.0124  0.0356  1.0000  -5.1264   0.0000   0.0000   0.0000   0.2269
  10.250   1.0522   0.02160   0.01486   0.0135  0.0344  1.0000  -5.3026   0.0000   0.0000   0.0000   0.2257
  10.500   1.0710   0.02234   0.01567   0.0148  0.0332  1.0000  -5.4776   0.0000   0.0000   0.0000   0.2245
  10.750   1.0889   0.02310   0.01646   0.0160  0.0321  1.0000  -5.6713   0.0000   0.0000   0.0000   0.2232
  11.000   1.1032   0.02435   0.01769   0.0175  0.0310  1.0000  -5.8463   0.0000   0.0000   0.0000   0.2217
  11.250   1.1201   0.02517   0.01866   0.0189  0.0301  1.0000  -6.0324   0.0000   0.0000   0.0000   0.2204
  11.500   1.1360   0.02601   0.01962   0.0203  0.0291  1.0000  -6.2184   0.0000   0.0000   0.0000   0.2190
  11.750   1.1505   0.02690   0.02059   0.0218  0.0282  1.0000  -6.4034   0.0000   0.0000   0.0000   0.2175
  12.000   1.1621   0.02785   0.02158   0.0238  0.0275  1.0000  -6.5784   0.0000   0.0000   0.0000   0.2157
  12.250   1.1719   0.02904   0.02280   0.0257  0.0269  1.0000  -6.7428   0.0000   0.0000   0.0000   0.2138
  12.500   1.1790   0.03082   0.02466   0.0277  0.0263  1.0000  -6.8734   0.0000   0.0000   0.0000   0.2119
  12.750   1.1865   0.03207   0.02608   0.0296  0.0259  1.0000  -7.0141   0.0000   0.0000   0.0000   0.2101
  13.000   1.1928   0.03355   0.02773   0.0312  0.0254  1.0000  -7.1458   0.0000   0.0000   0.0000   0.2084
  13.250   1.1979   0.03521   0.02953   0.0327  0.0249  1.0000  -7.2716   0.0000   0.0000   0.0000   0.2069
  13.500   1.2019   0.03703   0.03149   0.0338  0.0244  1.0000  -7.3915   0.0000   0.0000   0.0000   0.2055
  13.750   1.2050   0.03901   0.03361   0.0347  0.0240  1.0000  -7.5070   0.0000   0.0000   0.0000   0.2045
  14.000   1.2076   0.04112   0.03583   0.0352  0.0236  1.0000  -7.6230   0.0000   0.0000   0.0000   0.2036
  14.250   1.2099   0.04336   0.03816   0.0354  0.0233  1.0000  -7.7396   0.0000   0.0000   0.0000   0.2031
  14.500   1.2116   0.04582   0.04069   0.0353  0.0229  1.0000  -7.8517   0.0000   0.0000   0.0000   0.2027
  14.750   1.2105   0.04876   0.04371   0.0351  0.0226  1.0000  -7.9366   0.0000   0.0000   0.0000   0.2023
  15.000   1.2006   0.05301   0.04810   0.0345  0.0223  1.0000  -7.9365   0.0000   0.0000   0.0000   0.2020
  15.250   1.1916   0.05718   0.05249   0.0326  0.0221  1.0000  -7.9479   0.0000   0.0000   0.0000   0.2028
  15.500   1.1802   0.06200   0.05752   0.0302  0.0220  1.0000  -7.9331   0.0000   0.0000   0.0000   0.2041
  15.750   1.1662   0.06749   0.06320   0.0272  0.0218  1.0000  -7.8889   0.0000   0.0000   0.0000   0.2058
  16.000   1.1493   0.07370   0.06962   0.0236  0.0217  1.0000  -7.8127   0.0000   0.0000   0.0000   0.2080
  16.250   1.1293   0.08073   0.07684   0.0194  0.0217  1.0000  -7.6997   0.0000   0.0000   0.0000   0.2108
  16.500   1.1060   0.08876   0.08507   0.0144  0.0217  1.0000  -7.5468   0.0000   0.0000   0.0000   0.2143
  16.750   1.0784   0.09800   0.09450   0.0087  0.0217  1.0000  -7.3358   0.0000   0.0000   0.0000   0.2188
  17.000   1.0451   0.10893   0.10564   0.0019  0.0218  1.0000  -7.0417   0.0000   0.0000   0.0000   0.2246
  17.250   1.0015   0.12269   0.11960  -0.0066  0.0220  1.0000  -6.5979   0.0000   0.0000   0.0000   0.2327
  17.750   0.5147   0.17434   0.17184  -0.0176  0.0318  1.0000  -1.4806   0.0000   0.0000   0.0000   0.2706
  18.000   0.5223   0.17616   0.17367  -0.0180  0.0313  1.0000  -1.5512   0.0000   0.0000   0.0000   0.2706
  18.250   0.5338   0.17787   0.17540  -0.0178  0.0310  1.0000  -1.6710   0.0000   0.0000   0.0000   0.2689
  18.500   0.5211   0.18326   0.18078  -0.0215  0.0303  1.0000  -1.4043   0.0000   0.0000   0.0000   0.2774
  18.750   0.5218   0.18657   0.18410  -0.0233  0.0287  1.0000  -1.3392   0.0000   0.0000   0.0000   0.2808
  19.000   0.5260   0.18902   0.18655  -0.0244  0.0278  1.0000  -1.3466   0.0000   0.0000   0.0000   0.2823
  19.250   0.5318   0.19109   0.18863  -0.0253  0.0271  1.0000  -1.3868   0.0000   0.0000   0.0000   0.2831
  19.500   0.5399   0.19286   0.19040  -0.0257  0.0267  1.0000  -1.4693   0.0000   0.0000   0.0000   0.2827
  19.750   0.5524   0.19509   0.19264  -0.0253  0.0264  1.0000  -1.6054   0.0000   0.0000   0.0000   0.2803
  20.000   0.5388   0.20035   0.19790  -0.0296  0.0253  1.0000  -1.2744   0.0000   0.0000   0.0000   0.2901


