xflr5 v6.61

 Calculated polar for: NACA 0009

 1 1 Reynolds number fixed          Mach number fixed         

 xtrf =   1.000 (top)        1.000 (bottom)
 Mach =   0.000     Re =     0.375 e 6     Ncrit =   9.000

  alpha     CL        CD       CDp       Cm    Top Xtr Bot Xtr   Cpmin    Chinge    XCp    
 ------- -------- --------- --------- -------- ------- ------- -------- --------- ---------
 -10.000  -0.9954   0.03436   0.02922  -0.0149  1.0000  0.0188  -6.5972   0.0000   0.0000   0.0000   0.2262
  -9.750  -0.9823   0.03199   0.02665  -0.0137  1.0000  0.0192  -6.4339   0.0000   0.0000   0.0000   0.2275
  -9.500  -0.9660   0.03010   0.02459  -0.0127  1.0000  0.0196  -6.2402   0.0000   0.0000   0.0000   0.2286
  -9.250  -0.9490   0.02818   0.02244  -0.0116  1.0000  0.0201  -6.0609   0.0000   0.0000   0.0000   0.2298
  -9.000  -0.9310   0.02624   0.02020  -0.0104  1.0000  0.0207  -5.8910   0.0000   0.0000   0.0000   0.2310
  -8.750  -0.9116   0.02444   0.01810  -0.0093  1.0000  0.0215  -5.7173   0.0000   0.0000   0.0000   0.2322
  -8.500  -0.8905   0.02310   0.01643  -0.0083  1.0000  0.0222  -5.5214   0.0000   0.0000   0.0000   0.2333
  -8.250  -0.8696   0.02142   0.01473  -0.0076  1.0000  0.0233  -5.2869   0.0000   0.0000   0.0000   0.2342
  -8.000  -0.8467   0.02059   0.01383  -0.0070  1.0000  0.0246  -5.0239   0.0000   0.0000   0.0000   0.2349
  -7.750  -0.8235   0.01960   0.01266  -0.0062  1.0000  0.0259  -4.7944   0.0000   0.0000   0.0000   0.2359
  -7.500  -0.8013   0.01831   0.01127  -0.0054  1.0000  0.0271  -4.6074   0.0000   0.0000   0.0000   0.2370
  -7.250  -0.7783   0.01745   0.01042  -0.0047  1.0000  0.0285  -4.3889   0.0000   0.0000   0.0000   0.2379
  -7.000  -0.7545   0.01674   0.00959  -0.0040  1.0000  0.0304  -4.1812   0.0000   0.0000   0.0000   0.2388
  -6.750  -0.7319   0.01585   0.00872  -0.0032  1.0000  0.0326  -3.9705   0.0000   0.0000   0.0000   0.2399
  -6.500  -0.7078   0.01528   0.00808  -0.0025  1.0000  0.0352  -3.7558   0.0000   0.0000   0.0000   0.2410
  -6.250  -0.6852   0.01447   0.00728  -0.0017  1.0000  0.0378  -3.5524   0.0000   0.0000   0.0000   0.2423
  -6.000  -0.6615   0.01386   0.00663  -0.0009  1.0000  0.0414  -3.3470   0.0000   0.0000   0.0000   0.2435
  -5.750  -0.6376   0.01335   0.00611  -0.0003  1.0000  0.0460  -3.1351   0.0000   0.0000   0.0000   0.2447
  -5.500  -0.6141   0.01278   0.00555   0.0005  1.0000  0.0517  -2.9465   0.0000   0.0000   0.0000   0.2462
  -5.250  -0.5908   0.01220   0.00501   0.0013  1.0000  0.0592  -2.7698   0.0000   0.0000   0.0000   0.2477
  -5.000  -0.5672   0.01171   0.00456   0.0021  1.0000  0.0704  -2.5914   0.0000   0.0000   0.0000   0.2494
  -4.750  -0.5440   0.01117   0.00413   0.0029  1.0000  0.0874  -2.4166   0.0000   0.0000   0.0000   0.2511
  -4.500  -0.5208   0.01064   0.00375   0.0036  1.0000  0.1168  -2.2427   0.0000   0.0000   0.0000   0.2530
  -4.250  -0.4978   0.01009   0.00343   0.0044  1.0000  0.1620  -2.0711   0.0000   0.0000   0.0000   0.2549
  -4.000  -0.4747   0.00957   0.00316   0.0051  1.0000  0.2177  -1.9182   0.0000   0.0000   0.0000   0.2570
  -3.750  -0.4515   0.00909   0.00295   0.0057  1.0000  0.2780  -1.7671   0.0000   0.0000   0.0000   0.2592
  -3.500  -0.4280   0.00868   0.00278   0.0064  1.0000  0.3388  -1.6183   0.0000   0.0000   0.0000   0.2616
  -3.250  -0.4044   0.00830   0.00263   0.0071  1.0000  0.3989  -1.4755   0.0000   0.0000   0.0000   0.2642
  -3.000  -0.3805   0.00798   0.00253   0.0077  1.0000  0.4571  -1.3463   0.0000   0.0000   0.0000   0.2671
  -2.500  -0.3323   0.00743   0.00242   0.0090  1.0000  0.5685  -1.1028   0.0000   0.0000   0.0000   0.2743
  -2.250  -0.3080   0.00720   0.00239   0.0097  1.0000  0.6218  -0.9931   0.0000   0.0000   0.0000   0.2787
  -2.000  -0.2833   0.00701   0.00241   0.0103  1.0000  0.6742  -0.8917   0.0000   0.0000   0.0000   0.2838
  -1.750  -0.2585   0.00685   0.00245   0.0110  1.0000  0.7248  -0.7972   0.0000   0.0000   0.0000   0.2900
  -1.500  -0.2280   0.00671   0.00251   0.0105  0.9980  0.7749  -0.7030   0.0000   0.0000   0.0000   0.2937
  -1.250  -0.1890   0.00657   0.00253   0.0084  0.9927  0.8215  -0.6078   0.0000   0.0000   0.0000   0.2919
  -1.000  -0.1504   0.00648   0.00256   0.0064  0.9868  0.8603  -0.5256   0.0000   0.0000   0.0000   0.2903
  -0.750  -0.1117   0.00643   0.00258   0.0045  0.9804  0.8917  -0.4558   0.0000   0.0000   0.0000   0.2880
  -0.500  -0.0734   0.00641   0.00259   0.0027  0.9731  0.9161  -0.3979   0.0000   0.0000   0.0000   0.2850
  -0.250  -0.0364   0.00639   0.00260   0.0013  0.9636  0.9358  -0.3504   0.0000   0.0000   0.0000   0.2832
   0.000  -0.0000   0.00639   0.00261   0.0000  0.9508  0.9508  -0.3105   0.0000   0.0000   0.0000   1.0966
   0.250   0.0364   0.00639   0.00260  -0.0013  0.9358  0.9636  -0.3504   0.0000   0.0000   0.0000   0.2832
   0.500   0.0734   0.00641   0.00259  -0.0027  0.9161  0.9731  -0.3979   0.0000   0.0000   0.0000   0.2850
   0.750   0.1117   0.00643   0.00258  -0.0045  0.8917  0.9804  -0.4558   0.0000   0.0000   0.0000   0.2880
   1.000   0.1504   0.00648   0.00256  -0.0064  0.8602  0.9868  -0.5256   0.0000   0.0000   0.0000   0.2903
   1.250   0.1890   0.00657   0.00253  -0.0084  0.8215  0.9927  -0.6078   0.0000   0.0000   0.0000   0.2919
   1.500   0.2280   0.00671   0.00251  -0.0105  0.7749  0.9980  -0.7030   0.0000   0.0000   0.0000   0.2937
   1.750   0.2585   0.00685   0.00245  -0.0110  0.7248  1.0000  -0.7971   0.0000   0.0000   0.0000   0.2899
   2.000   0.2833   0.00701   0.00241  -0.0103  0.6743  1.0000  -0.8917   0.0000   0.0000   0.0000   0.2838
   2.250   0.3079   0.00720   0.00239  -0.0097  0.6219  1.0000  -0.9930   0.0000   0.0000   0.0000   0.2787
   2.500   0.3323   0.00742   0.00241  -0.0090  0.5685  1.0000  -1.1027   0.0000   0.0000   0.0000   0.2743
   2.750   0.3565   0.00769   0.00246  -0.0083  0.5137  1.0000  -1.2197   0.0000   0.0000   0.0000   0.2705
   3.000   0.3805   0.00798   0.00253  -0.0077  0.4571  1.0000  -1.3462   0.0000   0.0000   0.0000   0.2671
   3.250   0.4044   0.00830   0.00263  -0.0070  0.3989  1.0000  -1.4754   0.0000   0.0000   0.0000   0.2642
   3.500   0.4280   0.00867   0.00278  -0.0064  0.3388  1.0000  -1.6182   0.0000   0.0000   0.0000   0.2615
   3.750   0.4514   0.00909   0.00295  -0.0057  0.2781  1.0000  -1.7670   0.0000   0.0000   0.0000   0.2592
   4.000   0.4747   0.00957   0.00316  -0.0050  0.2177  1.0000  -1.9181   0.0000   0.0000   0.0000   0.2570
   4.250   0.4977   0.01009   0.00343  -0.0044  0.1620  1.0000  -2.0710   0.0000   0.0000   0.0000   0.2549
   4.500   0.5208   0.01064   0.00375  -0.0036  0.1169  1.0000  -2.2425   0.0000   0.0000   0.0000   0.2530
   4.750   0.5440   0.01117   0.00413  -0.0029  0.0874  1.0000  -2.4165   0.0000   0.0000   0.0000   0.2511
   5.000   0.5672   0.01171   0.00456  -0.0021  0.0704  1.0000  -2.5913   0.0000   0.0000   0.0000   0.2494
   5.250   0.5908   0.01220   0.00501  -0.0013  0.0592  1.0000  -2.7697   0.0000   0.0000   0.0000   0.2477
   5.500   0.6141   0.01278   0.00555  -0.0005  0.0517  1.0000  -2.9464   0.0000   0.0000   0.0000   0.2462
   5.750   0.6375   0.01335   0.00611   0.0003  0.0460  1.0000  -3.1350   0.0000   0.0000   0.0000   0.2447
   6.000   0.6615   0.01386   0.00663   0.0009  0.0414  1.0000  -3.3470   0.0000   0.0000   0.0000   0.2435
   6.250   0.6852   0.01447   0.00728   0.0017  0.0378  1.0000  -3.5523   0.0000   0.0000   0.0000   0.2422
   6.500   0.7078   0.01528   0.00808   0.0025  0.0352  1.0000  -3.7558   0.0000   0.0000   0.0000   0.2410
   6.750   0.7319   0.01585   0.00872   0.0032  0.0326  1.0000  -3.9705   0.0000   0.0000   0.0000   0.2399
   7.000   0.7545   0.01674   0.00959   0.0040  0.0304  1.0000  -4.1813   0.0000   0.0000   0.0000   0.2388
   7.250   0.7783   0.01745   0.01042   0.0047  0.0285  1.0000  -4.3889   0.0000   0.0000   0.0000   0.2379
   7.500   0.8014   0.01831   0.01127   0.0053  0.0271  1.0000  -4.6075   0.0000   0.0000   0.0000   0.2370
   7.750   0.8235   0.01960   0.01266   0.0062  0.0259  1.0000  -4.7945   0.0000   0.0000   0.0000   0.2359
   8.000   0.8467   0.02059   0.01383   0.0070  0.0246  1.0000  -5.0241   0.0000   0.0000   0.0000   0.2349
   8.250   0.8697   0.02142   0.01473   0.0076  0.0233  1.0000  -5.2871   0.0000   0.0000   0.0000   0.2342
   8.500   0.8905   0.02310   0.01643   0.0083  0.0222  1.0000  -5.5216   0.0000   0.0000   0.0000   0.2334
   8.750   0.9117   0.02444   0.01810   0.0093  0.0215  1.0000  -5.7175   0.0000   0.0000   0.0000   0.2322
   9.000   0.9311   0.02624   0.02021   0.0104  0.0207  1.0000  -5.8912   0.0000   0.0000   0.0000   0.2310
   9.250   0.9491   0.02818   0.02244   0.0116  0.0201  1.0000  -6.0611   0.0000   0.0000   0.0000   0.2298
   9.500   0.9661   0.03011   0.02459   0.0127  0.0196  1.0000  -6.2406   0.0000   0.0000   0.0000   0.2286
   9.750   0.9824   0.03199   0.02665   0.0137  0.0192  1.0000  -6.4343   0.0000   0.0000   0.0000   0.2275
  10.000   0.9955   0.03436   0.02922   0.0148  0.0188  1.0000  -6.5976   0.0000   0.0000   0.0000   0.2263
  10.750   0.9844   0.04641   0.04256   0.0207  0.0181  1.0000  -6.4898   0.0000   0.0000   0.0000   0.2195
  11.000   0.9662   0.05049   0.04694   0.0229  0.0181  1.0000  -6.3819   0.0000   0.0000   0.0000   0.2165
  11.250   0.9455   0.05473   0.05141   0.0234  0.0182  1.0000  -6.2805   0.0000   0.0000   0.0000   0.2151
  11.500   0.9257   0.05996   0.05680   0.0210  0.0182  1.0000  -6.1738   0.0000   0.0000   0.0000   0.2168
  11.750   0.9078   0.06631   0.06329   0.0163  0.0184  1.0000  -6.0588   0.0000   0.0000   0.0000   0.2211
  16.750   0.5511   0.17567   0.17314  -0.0278  0.0226  1.0000  -1.5726   0.0000   0.0000   0.0000   0.2910
  17.000   0.5634   0.17854   0.17602  -0.0271  0.0223  1.0000  -1.7325   0.0000   0.0000   0.0000   0.2881
  17.250   0.5578   0.18171   0.17918  -0.0298  0.0221  1.0000  -1.5568   0.0000   0.0000   0.0000   0.2936
  17.500   0.5543   0.18526   0.18273  -0.0326  0.0213  1.0000  -1.3680   0.0000   0.0000   0.0000   0.2991
  17.750   0.5575   0.18806   0.18553  -0.0338  0.0202  1.0000  -1.3464   0.0000   0.0000   0.0000   0.3009
  18.000   0.5617   0.19054   0.18802  -0.0349  0.0194  1.0000  -1.3626   0.0000   0.0000   0.0000   0.3021
  18.250   0.5668   0.19287   0.19036  -0.0358  0.0189  1.0000  -1.4057   0.0000   0.0000   0.0000   0.3027
  18.500   0.5739   0.19526   0.19276  -0.0361  0.0186  1.0000  -1.4944   0.0000   0.0000   0.0000   0.3021
  18.750   0.5794   0.19851   0.19601  -0.0368  0.0184  1.0000  -1.5112   0.0000   0.0000   0.0000   0.3024
  19.000   0.5762   0.20176   0.19926  -0.0395  0.0182  1.0000  -1.3296   0.0000   0.0000   0.0000   0.3076
  19.250   0.5784   0.20505   0.20256  -0.0412  0.0173  1.0000  -1.2600   0.0000   0.0000   0.0000   0.3102
  19.500   0.5821   0.20790   0.20541  -0.0424  0.0167  1.0000  -1.2557   0.0000   0.0000   0.0000   0.3117
  19.750   0.5860   0.21062   0.20814  -0.0436  0.0161  1.0000  -1.2657   0.0000   0.0000   0.0000   0.3130
  20.000   0.5903   0.21324   0.21077  -0.0448  0.0157  1.0000  -1.2893   0.0000   0.0000   0.0000   0.3141


