xflr5 v6.61

 Calculated polar for: NACA 0009

 1 1 Reynolds number fixed          Mach number fixed         

 xtrf =   1.000 (top)        1.000 (bottom)
 Mach =   0.000     Re =     0.200 e 6     Ncrit =   9.000

  alpha     CL        CD       CDp       Cm    Top Xtr Bot Xtr   Cpmin    Chinge    XCp    
 ------- -------- --------- --------- -------- ------- ------- -------- --------- ---------
  -9.250  -0.8736   0.04992   0.04527  -0.0184  1.0000  0.0373  -4.4077   0.0000   0.0000   0.0000   0.2216
  -9.000  -0.8856   0.04225   0.03680  -0.0160  1.0000  0.0344  -4.7051   0.0000   0.0000   0.0000   0.2246
  -8.750  -0.8811   0.03791   0.03186  -0.0141  1.0000  0.0347  -4.7458   0.0000   0.0000   0.0000   0.2268
  -8.500  -0.8713   0.03431   0.02760  -0.0122  1.0000  0.0353  -4.7442   0.0000   0.0000   0.0000   0.2290
  -8.250  -0.8564   0.03134   0.02403  -0.0105  1.0000  0.0357  -4.6891   0.0000   0.0000   0.0000   0.2309
  -8.000  -0.8364   0.02851   0.02105  -0.0097  1.0000  0.0365  -4.5339   0.0000   0.0000   0.0000   0.2317
  -7.750  -0.8142   0.02674   0.01917  -0.0090  1.0000  0.0377  -4.3419   0.0000   0.0000   0.0000   0.2325
  -7.500  -0.7921   0.02500   0.01714  -0.0081  1.0000  0.0395  -4.1889   0.0000   0.0000   0.0000   0.2336
  -7.250  -0.7696   0.02339   0.01530  -0.0072  1.0000  0.0419  -4.0397   0.0000   0.0000   0.0000   0.2346
  -7.000  -0.7458   0.02215   0.01398  -0.0066  1.0000  0.0443  -3.8616   0.0000   0.0000   0.0000   0.2354
  -6.750  -0.7219   0.02071   0.01234  -0.0057  1.0000  0.0467  -3.7144   0.0000   0.0000   0.0000   0.2365
  -6.500  -0.6983   0.01963   0.01129  -0.0050  1.0000  0.0501  -3.5238   0.0000   0.0000   0.0000   0.2374
  -6.250  -0.6750   0.01857   0.01023  -0.0043  1.0000  0.0544  -3.3410   0.0000   0.0000   0.0000   0.2385
  -6.000  -0.6517   0.01756   0.00916  -0.0034  1.0000  0.0591  -3.1670   0.0000   0.0000   0.0000   0.2398
  -5.750  -0.6287   0.01668   0.00830  -0.0025  1.0000  0.0653  -2.9841   0.0000   0.0000   0.0000   0.2411
  -5.500  -0.6061   0.01582   0.00751  -0.0016  1.0000  0.0732  -2.8215   0.0000   0.0000   0.0000   0.2426
  -5.250  -0.5834   0.01504   0.00677  -0.0007  1.0000  0.0841  -2.6649   0.0000   0.0000   0.0000   0.2442
  -5.000  -0.5610   0.01424   0.00605   0.0002  1.0000  0.1004  -2.5082   0.0000   0.0000   0.0000   0.2460
  -4.750  -0.5392   0.01338   0.00539   0.0011  1.0000  0.1275  -2.3523   0.0000   0.0000   0.0000   0.2479
  -4.500  -0.5178   0.01247   0.00482   0.0021  1.0000  0.1802  -2.1962   0.0000   0.0000   0.0000   0.2500
  -4.250  -0.4966   0.01165   0.00440   0.0030  1.0000  0.2596  -2.0416   0.0000   0.0000   0.0000   0.2521
  -4.000  -0.4749   0.01100   0.00410   0.0039  1.0000  0.3393  -1.8959   0.0000   0.0000   0.0000   0.2545
  -3.750  -0.4528   0.01047   0.00388   0.0049  1.0000  0.4129  -1.7501   0.0000   0.0000   0.0000   0.2573
  -3.500  -0.4306   0.01003   0.00371   0.0059  1.0000  0.4808  -1.6060   0.0000   0.0000   0.0000   0.2604
  -3.250  -0.4081   0.00965   0.00356   0.0070  1.0000  0.5444  -1.4696   0.0000   0.0000   0.0000   0.2640
  -3.000  -0.3855   0.00932   0.00347   0.0082  1.0000  0.6046  -1.3441   0.0000   0.0000   0.0000   0.2683
  -2.750  -0.3629   0.00904   0.00342   0.0095  1.0000  0.6621  -1.2211   0.0000   0.0000   0.0000   0.2733
  -2.500  -0.3403   0.00882   0.00340   0.0109  1.0000  0.7171  -1.1083   0.0000   0.0000   0.0000   0.2793
  -2.250  -0.3179   0.00866   0.00342   0.0125  1.0000  0.7683  -1.0023   0.0000   0.0000   0.0000   0.2867
  -2.000  -0.2958   0.00858   0.00348   0.0142  1.0000  0.8164  -0.9051   0.0000   0.0000   0.0000   0.2956
  -1.750  -0.2737   0.00858   0.00359   0.0161  1.0000  0.8602  -0.8140   0.0000   0.0000   0.0000   0.3064
  -1.500  -0.2497   0.00866   0.00373   0.0176  1.0000  0.9003  -0.7287   0.0000   0.0000   0.0000   0.3180
  -1.250  -0.2183   0.00881   0.00387   0.0174  1.0000  0.9346  -0.6409   0.0000   0.0000   0.0000   0.3276
  -1.000  -0.1750   0.00898   0.00400   0.0146  1.0000  0.9598  -0.5493   0.0000   0.0000   0.0000   0.3310
  -0.750  -0.1242   0.00912   0.00410   0.0099  1.0000  0.9772  -0.4642   0.0000   0.0000   0.0000   0.3277
  -0.500  -0.0682   0.00921   0.00414   0.0040  1.0000  0.9884  -0.3906   0.0000   0.0000   0.0000   0.3068
  -0.250  -0.0122   0.00923   0.00413  -0.0020  1.0000  0.9977  -0.3314   0.0000   0.0000   0.0000   0.0827
   0.000   0.0000   0.00919   0.00409  -0.0000  1.0000  1.0000  -0.3102   0.0000   0.0000   0.0000   0.4089
   0.250   0.0122   0.00923   0.00413   0.0020  0.9977  1.0000  -0.3314   0.0000   0.0000   0.0000   0.0826
   0.500   0.0682   0.00921   0.00414  -0.0040  0.9884  1.0000  -0.3906   0.0000   0.0000   0.0000   0.3068
   0.750   0.1242   0.00912   0.00410  -0.0099  0.9772  1.0000  -0.4642   0.0000   0.0000   0.0000   0.3277
   1.000   0.1750   0.00898   0.00400  -0.0145  0.9598  1.0000  -0.5493   0.0000   0.0000   0.0000   0.3310
   1.250   0.2183   0.00881   0.00387  -0.0174  0.9346  1.0000  -0.6408   0.0000   0.0000   0.0000   0.3276
   1.500   0.2496   0.00866   0.00373  -0.0175  0.9002  1.0000  -0.7287   0.0000   0.0000   0.0000   0.3180
   1.750   0.2737   0.00858   0.00359  -0.0161  0.8602  1.0000  -0.8139   0.0000   0.0000   0.0000   0.3064
   2.000   0.2958   0.00858   0.00348  -0.0142  0.8164  1.0000  -0.9051   0.0000   0.0000   0.0000   0.2956
   2.250   0.3179   0.00866   0.00342  -0.0125  0.7684  1.0000  -1.0023   0.0000   0.0000   0.0000   0.2866
   2.500   0.3402   0.00882   0.00340  -0.0109  0.7171  1.0000  -1.1083   0.0000   0.0000   0.0000   0.2793
   2.750   0.3628   0.00904   0.00342  -0.0095  0.6621  1.0000  -1.2210   0.0000   0.0000   0.0000   0.2733
   3.000   0.3855   0.00932   0.00347  -0.0082  0.6047  1.0000  -1.3440   0.0000   0.0000   0.0000   0.2683
   3.250   0.4080   0.00965   0.00356  -0.0070  0.5445  1.0000  -1.4695   0.0000   0.0000   0.0000   0.2640
   3.500   0.4305   0.01003   0.00371  -0.0059  0.4808  1.0000  -1.6059   0.0000   0.0000   0.0000   0.2604
   3.750   0.4528   0.01047   0.00388  -0.0049  0.4129  1.0000  -1.7500   0.0000   0.0000   0.0000   0.2572
   4.000   0.4749   0.01099   0.00410  -0.0039  0.3394  1.0000  -1.8958   0.0000   0.0000   0.0000   0.2545
   4.500   0.5178   0.01247   0.00482  -0.0021  0.1802  1.0000  -2.1961   0.0000   0.0000   0.0000   0.2500
   4.750   0.5392   0.01338   0.00539  -0.0011  0.1275  1.0000  -2.3523   0.0000   0.0000   0.0000   0.2479
   5.000   0.5610   0.01424   0.00605  -0.0002  0.1005  1.0000  -2.5081   0.0000   0.0000   0.0000   0.2460
   5.250   0.5834   0.01503   0.00677   0.0007  0.0842  1.0000  -2.6649   0.0000   0.0000   0.0000   0.2442
   5.500   0.6061   0.01582   0.00751   0.0016  0.0732  1.0000  -2.8215   0.0000   0.0000   0.0000   0.2426
   5.750   0.6287   0.01668   0.00830   0.0025  0.0653  1.0000  -2.9840   0.0000   0.0000   0.0000   0.2411
   6.000   0.6517   0.01756   0.00916   0.0034  0.0591  1.0000  -3.1670   0.0000   0.0000   0.0000   0.2398
   6.250   0.6750   0.01857   0.01023   0.0043  0.0544  1.0000  -3.3410   0.0000   0.0000   0.0000   0.2385
   6.500   0.6983   0.01963   0.01129   0.0050  0.0501  1.0000  -3.5238   0.0000   0.0000   0.0000   0.2374
   6.750   0.7219   0.02071   0.01234   0.0057  0.0467  1.0000  -3.7144   0.0000   0.0000   0.0000   0.2365
   7.000   0.7458   0.02215   0.01398   0.0066  0.0443  1.0000  -3.8616   0.0000   0.0000   0.0000   0.2354
   7.250   0.7696   0.02339   0.01530   0.0072  0.0419  1.0000  -4.0398   0.0000   0.0000   0.0000   0.2346
   7.500   0.7921   0.02500   0.01715   0.0081  0.0395  1.0000  -4.1889   0.0000   0.0000   0.0000   0.2336
   7.750   0.8142   0.02674   0.01917   0.0090  0.0377  1.0000  -4.3420   0.0000   0.0000   0.0000   0.2325
   8.000   0.8364   0.02851   0.02105   0.0097  0.0365  1.0000  -4.5341   0.0000   0.0000   0.0000   0.2317
   8.250   0.8564   0.03134   0.02403   0.0105  0.0357  1.0000  -4.6891   0.0000   0.0000   0.0000   0.2310
   8.500   0.8713   0.03432   0.02760   0.0122  0.0353  1.0000  -4.7443   0.0000   0.0000   0.0000   0.2291
   8.750   0.8812   0.03792   0.03186   0.0141  0.0347  1.0000  -4.7458   0.0000   0.0000   0.0000   0.2268
   9.000   0.8857   0.04226   0.03681   0.0160  0.0344  1.0000  -4.7051   0.0000   0.0000   0.0000   0.2246
   9.250   0.8886   0.04678   0.04173   0.0175  0.0349  1.0000  -4.6777   0.0000   0.0000   0.0000   0.2228
   9.500   0.8943   0.05087   0.04599   0.0185  0.0354  1.0000  -4.7139   0.0000   0.0000   0.0000   0.2217
  13.750   0.7268   0.16524   0.16150  -0.0345  0.0461  1.0000  -2.1791   0.0000   0.0000   0.0000   0.2871
  14.000   0.7175   0.17089   0.16711  -0.0407  0.0445  1.0000  -1.9463   0.0000   0.0000   0.0000   0.2963
  14.250   0.7228   0.17459   0.17081  -0.0424  0.0426  1.0000  -1.9572   0.0000   0.0000   0.0000   0.2980
  14.500   0.7361   0.17733   0.17357  -0.0415  0.0411  1.0000  -2.1169   0.0000   0.0000   0.0000   0.2953
  14.750   0.7399   0.18186   0.17808  -0.0434  0.0406  1.0000  -2.0903   0.0000   0.0000   0.0000   0.2974
  15.000   0.7377   0.18653   0.18273  -0.0481  0.0390  1.0000  -1.9273   0.0000   0.0000   0.0000   0.3038
  15.250   0.7438   0.19027   0.18647  -0.0500  0.0376  1.0000  -1.9271   0.0000   0.0000   0.0000   0.3055
  15.500   0.7516   0.19362   0.18983  -0.0512  0.0366  1.0000  -1.9711   0.0000   0.0000   0.0000   0.3061
  15.750   0.7639   0.19695   0.19318  -0.0506  0.0359  1.0000  -2.1062   0.0000   0.0000   0.0000   0.3039
  16.000   0.7686   0.20134   0.19755  -0.0530  0.0355  1.0000  -2.0618   0.0000   0.0000   0.0000   0.3063
  16.250   0.7693   0.20557   0.20176  -0.0577  0.0344  1.0000  -1.8958   0.0000   0.0000   0.0000   0.3122
  16.500   0.7761   0.20929   0.20547  -0.0598  0.0331  1.0000  -1.8810   0.0000   0.0000   0.0000   0.3140
  16.750   0.7838   0.21271   0.20890  -0.0615  0.0322  1.0000  -1.8981   0.0000   0.0000   0.0000   0.3151
  17.000   0.7924   0.21596   0.21215  -0.0627  0.0314  1.0000  -1.9512   0.0000   0.0000   0.0000   0.3153
  17.250   0.8057   0.21998   0.21621  -0.0617  0.0309  1.0000  -2.1054   0.0000   0.0000   0.0000   0.3124
  17.500   0.8081   0.22369   0.21988  -0.0658  0.0307  1.0000  -1.9709   0.0000   0.0000   0.0000   0.3170
  17.750   0.8129   0.22758   0.22376  -0.0699  0.0296  1.0000  -1.8364   0.0000   0.0000   0.0000   0.3213
  18.000   0.8206   0.23112   0.22730  -0.0721  0.0284  1.0000  -1.8235   0.0000   0.0000   0.0000   0.3228
  18.250   0.8290   0.23430   0.23049  -0.0737  0.0273  1.0000  -1.8730   0.0000   0.0000   0.0000   0.3235
  18.500   0.8387   0.23750   0.23371  -0.0743  0.0266  1.0000  -1.9865   0.0000   0.0000   0.0000   0.3228
  18.750   0.8479   0.24174   0.23794  -0.0753  0.0263  1.0000  -2.0453   0.0000   0.0000   0.0000   0.3226
  19.000   0.8525   0.24517   0.24136  -0.0800  0.0259  1.0000  -1.8960   0.0000   0.0000   0.0000   0.3274
  19.250   0.8604   0.24885   0.24503  -0.0827  0.0250  1.0000  -1.8593   0.0000   0.0000   0.0000   0.3294
  19.500   0.5799   0.20881   0.20542  -0.0415  0.0276  1.0000  -1.2075   0.0000   0.0000   0.0000   0.3105
  19.750   0.5854   0.21143   0.20805  -0.0423  0.0268  1.0000  -1.2582   0.0000   0.0000   0.0000   0.3108
  20.000   0.5953   0.21534   0.21197  -0.0421  0.0264  1.0000  -1.3740   0.0000   0.0000   0.0000   0.3089


