xflr5 v6.61

 Calculated polar for: NACA 0009

 1 1 Reynolds number fixed          Mach number fixed         

 xtrf =   1.000 (top)        1.000 (bottom)
 Mach =   0.000     Re =     0.100 e 6     Ncrit =   9.000

  alpha     CL        CD       CDp       Cm    Top Xtr Bot Xtr   Cpmin    Chinge    XCp    
 ------- -------- --------- --------- -------- ------- ------- -------- --------- ---------
  -9.750  -0.7054   0.10527   0.10035   0.0081  1.0000  0.1440  -2.1295   0.0000   0.0000   0.0000   0.2553
  -8.750  -0.8244   0.06071   0.05488  -0.0177  1.0000  0.0783  -3.4581   0.0000   0.0000   0.0000   0.2223
  -8.500  -0.8182   0.05457   0.04854  -0.0172  1.0000  0.0725  -3.5014   0.0000   0.0000   0.0000   0.2228
  -8.250  -0.8171   0.04901   0.04243  -0.0161  1.0000  0.0697  -3.5873   0.0000   0.0000   0.0000   0.2242
  -8.000  -0.8092   0.04453   0.03748  -0.0148  1.0000  0.0693  -3.5942   0.0000   0.0000   0.0000   0.2257
  -7.750  -0.7980   0.04023   0.03265  -0.0133  1.0000  0.0684  -3.5905   0.0000   0.0000   0.0000   0.2273
  -7.500  -0.7833   0.03634   0.02817  -0.0118  1.0000  0.0680  -3.5782   0.0000   0.0000   0.0000   0.2291
  -7.250  -0.7652   0.03319   0.02444  -0.0104  1.0000  0.0691  -3.5447   0.0000   0.0000   0.0000   0.2307
  -7.000  -0.7448   0.03074   0.02159  -0.0092  1.0000  0.0725  -3.4568   0.0000   0.0000   0.0000   0.2320
  -6.750  -0.7219   0.02870   0.01929  -0.0083  1.0000  0.0763  -3.3409   0.0000   0.0000   0.0000   0.2330
  -6.500  -0.6980   0.02653   0.01685  -0.0074  1.0000  0.0798  -3.2305   0.0000   0.0000   0.0000   0.2341
  -6.250  -0.6739   0.02493   0.01507  -0.0066  1.0000  0.0864  -3.0882   0.0000   0.0000   0.0000   0.2351
  -6.000  -0.6490   0.02335   0.01339  -0.0058  1.0000  0.0934  -2.9449   0.0000   0.0000   0.0000   0.2361
  -5.750  -0.6250   0.02193   0.01206  -0.0051  1.0000  0.1031  -2.7886   0.0000   0.0000   0.0000   0.2370
  -5.500  -0.6012   0.02062   0.01080  -0.0042  1.0000  0.1155  -2.6594   0.0000   0.0000   0.0000   0.2383
  -5.250  -0.5785   0.01936   0.00965  -0.0033  1.0000  0.1330  -2.5262   0.0000   0.0000   0.0000   0.2399
  -5.000  -0.5569   0.01810   0.00863  -0.0021  1.0000  0.1590  -2.3941   0.0000   0.0000   0.0000   0.2419
  -4.750  -0.5366   0.01678   0.00765  -0.0008  1.0000  0.2055  -2.2654   0.0000   0.0000   0.0000   0.2443
  -4.500  -0.5185   0.01535   0.00687   0.0006  1.0000  0.2939  -2.1354   0.0000   0.0000   0.0000   0.2473
  -4.250  -0.5003   0.01430   0.00641   0.0024  1.0000  0.4040  -2.0044   0.0000   0.0000   0.0000   0.2510
  -4.000  -0.4810   0.01363   0.00615   0.0043  1.0000  0.4963  -1.8689   0.0000   0.0000   0.0000   0.2553
  -3.750  -0.4610   0.01315   0.00597   0.0063  1.0000  0.5741  -1.7312   0.0000   0.0000   0.0000   0.2602
  -3.500  -0.4407   0.01279   0.00585   0.0085  1.0000  0.6437  -1.5941   0.0000   0.0000   0.0000   0.2660
  -3.250  -0.4203   0.01254   0.00580   0.0109  1.0000  0.7061  -1.4664   0.0000   0.0000   0.0000   0.2729
  -3.000  -0.3997   0.01241   0.00581   0.0136  1.0000  0.7636  -1.3455   0.0000   0.0000   0.0000   0.2810
  -2.750  -0.3782   0.01240   0.00588   0.0162  1.0000  0.8164  -1.2246   0.0000   0.0000   0.0000   0.2900
  -2.500  -0.3533   0.01251   0.00601   0.0183  1.0000  0.8642  -1.1074   0.0000   0.0000   0.0000   0.2991
  -2.250  -0.3176   0.01276   0.00616   0.0183  1.0000  0.9055  -0.9734   0.0000   0.0000   0.0000   0.3048
  -2.000  -0.2648   0.01307   0.00631   0.0144  1.0000  0.9385  -0.8236   0.0000   0.0000   0.0000   0.3016
  -1.750  -0.1958   0.01330   0.00632   0.0067  1.0000  0.9626  -0.6696   0.0000   0.0000   0.0000   0.2811
  -1.500  -0.1243   0.01329   0.00613  -0.0021  1.0000  0.9819  -0.5385   0.0000   0.0000   0.0000   0.2292
  -1.250  -0.0546   0.01305   0.00577  -0.0111  1.0000  0.9990  -0.4357   0.0000   0.0000   0.0000   0.0415
  -1.000  -0.0376   0.01271   0.00540  -0.0103  1.0000  1.0000  -0.4002   0.0000   0.0000   0.0000  -0.0321
  -0.750  -0.0254   0.01244   0.00513  -0.0085  1.0000  1.0000  -0.3723   0.0000   0.0000   0.0000  -0.0909
  -0.500  -0.0155   0.01226   0.00494  -0.0060  1.0000  1.0000  -0.3487   0.0000   0.0000   0.0000  -0.1472
  -0.250  -0.0075   0.01215   0.00484  -0.0031  1.0000  1.0000  -0.3286   0.0000   0.0000   0.0000  -0.1728
   0.000   0.0000   0.01211   0.00481  -0.0000  1.0000  1.0000  -0.3108   0.0000   0.0000   0.0000   0.4087
   0.250   0.0075   0.01215   0.00484   0.0031  1.0000  1.0000  -0.3286   0.0000   0.0000   0.0000  -0.1727
   0.500   0.0155   0.01226   0.00494   0.0060  1.0000  1.0000  -0.3487   0.0000   0.0000   0.0000  -0.1470
   0.750   0.0254   0.01244   0.00513   0.0085  1.0000  1.0000  -0.3723   0.0000   0.0000   0.0000  -0.0908
   1.000   0.0376   0.01271   0.00540   0.0103  1.0000  1.0000  -0.4002   0.0000   0.0000   0.0000  -0.0319
   1.250   0.0546   0.01305   0.00577   0.0111  0.9990  1.0000  -0.4357   0.0000   0.0000   0.0000   0.0413
   1.500   0.1243   0.01329   0.00613   0.0021  0.9819  1.0000  -0.5385   0.0000   0.0000   0.0000   0.2292
   1.750   0.1958   0.01330   0.00632  -0.0067  0.9626  1.0000  -0.6696   0.0000   0.0000   0.0000   0.2811
   2.000   0.2648   0.01307   0.00631  -0.0144  0.9385  1.0000  -0.8235   0.0000   0.0000   0.0000   0.3016
   2.250   0.3176   0.01276   0.00616  -0.0183  0.9055  1.0000  -0.9734   0.0000   0.0000   0.0000   0.3048
   2.500   0.3532   0.01251   0.00601  -0.0183  0.8642  1.0000  -1.1074   0.0000   0.0000   0.0000   0.2991
   2.750   0.3781   0.01240   0.00588  -0.0162  0.8164  1.0000  -1.2246   0.0000   0.0000   0.0000   0.2900
   3.000   0.3997   0.01241   0.00581  -0.0136  0.7636  1.0000  -1.3455   0.0000   0.0000   0.0000   0.2810
   3.250   0.4203   0.01254   0.00580  -0.0109  0.7062  1.0000  -1.4663   0.0000   0.0000   0.0000   0.2729
   3.500   0.4407   0.01279   0.00585  -0.0085  0.6437  1.0000  -1.5940   0.0000   0.0000   0.0000   0.2660
   3.750   0.4610   0.01315   0.00597  -0.0063  0.5742  1.0000  -1.7311   0.0000   0.0000   0.0000   0.2602
   4.000   0.4810   0.01363   0.00614  -0.0042  0.4963  1.0000  -1.8688   0.0000   0.0000   0.0000   0.2553
   4.250   0.5003   0.01430   0.00641  -0.0024  0.4041  1.0000  -2.0043   0.0000   0.0000   0.0000   0.2510
   4.500   0.5185   0.01535   0.00687  -0.0006  0.2940  1.0000  -2.1353   0.0000   0.0000   0.0000   0.2473
   4.750   0.5366   0.01677   0.00765   0.0009  0.2055  1.0000  -2.2653   0.0000   0.0000   0.0000   0.2443
   5.000   0.5569   0.01810   0.00862   0.0021  0.1590  1.0000  -2.3941   0.0000   0.0000   0.0000   0.2419
   5.250   0.5785   0.01936   0.00965   0.0033  0.1330  1.0000  -2.5262   0.0000   0.0000   0.0000   0.2399
   5.500   0.6012   0.02062   0.01079   0.0042  0.1155  1.0000  -2.6593   0.0000   0.0000   0.0000   0.2383
   5.750   0.6250   0.02193   0.01206   0.0051  0.1031  1.0000  -2.7886   0.0000   0.0000   0.0000   0.2370
   6.000   0.6490   0.02335   0.01339   0.0058  0.0934  1.0000  -2.9449   0.0000   0.0000   0.0000   0.2361
   6.250   0.6739   0.02493   0.01507   0.0066  0.0864  1.0000  -3.0882   0.0000   0.0000   0.0000   0.2351
   6.500   0.6980   0.02653   0.01685   0.0074  0.0798  1.0000  -3.2305   0.0000   0.0000   0.0000   0.2341
   6.750   0.7219   0.02870   0.01929   0.0083  0.0763  1.0000  -3.3409   0.0000   0.0000   0.0000   0.2330
   7.000   0.7448   0.03074   0.02159   0.0092  0.0725  1.0000  -3.4568   0.0000   0.0000   0.0000   0.2320
   7.250   0.7652   0.03319   0.02444   0.0104  0.0691  1.0000  -3.5448   0.0000   0.0000   0.0000   0.2307
   7.500   0.7834   0.03634   0.02817   0.0118  0.0680  1.0000  -3.5782   0.0000   0.0000   0.0000   0.2291
   7.750   0.7980   0.04023   0.03265   0.0133  0.0684  1.0000  -3.5905   0.0000   0.0000   0.0000   0.2273
   8.000   0.8093   0.04454   0.03749   0.0148  0.0693  1.0000  -3.5943   0.0000   0.0000   0.0000   0.2257
   8.250   0.8171   0.04902   0.04244   0.0161  0.0697  1.0000  -3.5873   0.0000   0.0000   0.0000   0.2242
   8.500   0.8232   0.05362   0.04739   0.0170  0.0704  1.0000  -3.5825   0.0000   0.0000   0.0000   0.2231
   9.500   0.6800   0.10262   0.09763  -0.0128  0.1490  1.0000  -1.9710   0.0000   0.0000   0.0000   0.2628
   9.750   0.7053   0.10535   0.10043  -0.0084  0.1440  1.0000  -2.1261   0.0000   0.0000   0.0000   0.2556
  10.000   0.6768   0.11129   0.10625  -0.0163  0.1392  1.0000  -1.9421   0.0000   0.0000   0.0000   0.2675
  10.250   0.6891   0.11487   0.10984  -0.0149  0.1343  1.0000  -2.0171   0.0000   0.0000   0.0000   0.2649
  10.500   0.6796   0.11932   0.11424  -0.0186  0.1284  1.0000  -1.9476   0.0000   0.0000   0.0000   0.2704
  10.750   0.6817   0.12363   0.11852  -0.0196  0.1247  1.0000  -1.9504   0.0000   0.0000   0.0000   0.2715
  11.000   0.6814   0.12756   0.12243  -0.0214  0.1193  1.0000  -1.9357   0.0000   0.0000   0.0000   0.2739
  11.250   0.6910   0.13181   0.12668  -0.0209  0.1169  1.0000  -1.9818   0.0000   0.0000   0.0000   0.2726
  11.500   0.6798   0.13618   0.13099  -0.0253  0.1123  1.0000  -1.8823   0.0000   0.0000   0.0000   0.2793
  13.250   0.7006   0.16426   0.15898  -0.0357  0.0914  1.0000  -1.8070   0.0000   0.0000   0.0000   0.2915
  13.500   0.7050   0.16775   0.16247  -0.0372  0.0873  1.0000  -1.8031   0.0000   0.0000   0.0000   0.2931
  13.750   0.7158   0.17216   0.16688  -0.0373  0.0850  1.0000  -1.8437   0.0000   0.0000   0.0000   0.2922
  14.000   0.7117   0.17539   0.17008  -0.0410  0.0821  1.0000  -1.7584   0.0000   0.0000   0.0000   0.2974
  14.250   0.7205   0.17905   0.17374  -0.0417  0.0794  1.0000  -1.8041   0.0000   0.0000   0.0000   0.2974
  14.500   0.7320   0.18378   0.17848  -0.0418  0.0779  1.0000  -1.8660   0.0000   0.0000   0.0000   0.2964
  14.750   0.7278   0.18663   0.18129  -0.0460  0.0757  1.0000  -1.7674   0.0000   0.0000   0.0000   0.3023
  15.000   0.7347   0.19017   0.18483  -0.0475  0.0731  1.0000  -1.7836   0.0000   0.0000   0.0000   0.3034
  16.500   0.7735   0.21204   0.20668  -0.0588  0.0626  1.0000  -1.7707   0.0000   0.0000   0.0000   0.3131
  16.750   0.7811   0.21539   0.21003  -0.0606  0.0600  1.0000  -1.7793   0.0000   0.0000   0.0000   0.3143
  17.000   0.7974   0.22099   0.21565  -0.0592  0.0581  1.0000  -1.9146   0.0000   0.0000   0.0000   0.3107
  17.250   0.7965   0.22275   0.21737  -0.0641  0.0573  1.0000  -1.7890   0.0000   0.0000   0.0000   0.3166
  17.500   0.8028   0.22600   0.22062  -0.0668  0.0554  1.0000  -1.7562   0.0000   0.0000   0.0000   0.3190
  17.750   0.8111   0.22941   0.22404  -0.0685  0.0537  1.0000  -1.7673   0.0000   0.0000   0.0000   0.3199
  18.000   0.8219   0.23348   0.22814  -0.0690  0.0523  1.0000  -1.8301   0.0000   0.0000   0.0000   0.3191
  18.250   0.8291   0.23726   0.23190  -0.0712  0.0518  1.0000  -1.8111   0.0000   0.0000   0.0000   0.3207
  18.500   0.8343   0.23996   0.23459  -0.0748  0.0505  1.0000  -1.7461   0.0000   0.0000   0.0000   0.3241
  18.750   0.8421   0.24329   0.23792  -0.0770  0.0489  1.0000  -1.7513   0.0000   0.0000   0.0000   0.3256
  19.000   0.8508   0.24666   0.24130  -0.0788  0.0475  1.0000  -1.7826   0.0000   0.0000   0.0000   0.3264
  19.250   0.8612   0.25090   0.24556  -0.0794  0.0465  1.0000  -1.8622   0.0000   0.0000   0.0000   0.3256
  19.500   0.8685   0.25440   0.24906  -0.0818  0.0460  1.0000  -1.8504   0.0000   0.0000   0.0000   0.3273
  19.750   0.8747   0.25697   0.25162  -0.0854  0.0451  1.0000  -1.7938   0.0000   0.0000   0.0000   0.3303
  20.000   0.8828   0.26018   0.25483  -0.0878  0.0435  1.0000  -1.7910   0.0000   0.0000   0.0000   0.3318


