xflr5 v6.61

 Calculated polar for: NACA 0012

 1 1 Reynolds number fixed          Mach number fixed         

 xtrf =   1.000 (top)        1.000 (bottom)
 Mach =   0.000     Re =     0.820 e 6     Ncrit =   9.000

  alpha     CL        CD       CDp       Cm    Top Xtr Bot Xtr   Cpmin    Chinge    XCp    
 ------- -------- --------- --------- -------- ------- ------- -------- --------- ---------
 -10.000  -1.0726   0.01608   0.01001  -0.0064  1.0000  0.0272  -5.4375   0.0000   0.0000   0.0000   0.2329
  -9.750  -1.0514   0.01557   0.00950  -0.0054  1.0000  0.0285  -5.2368   0.0000   0.0000   0.0000   0.2341
  -9.500  -1.0293   0.01517   0.00906  -0.0045  1.0000  0.0298  -5.0356   0.0000   0.0000   0.0000   0.2352
  -9.250  -1.0067   0.01484   0.00868  -0.0036  1.0000  0.0309  -4.8356   0.0000   0.0000   0.0000   0.2363
  -9.000  -0.9873   0.01425   0.00809  -0.0022  1.0000  0.0327  -4.6544   0.0000   0.0000   0.0000   0.2379
  -8.750  -0.9657   0.01389   0.00771  -0.0011  1.0000  0.0344  -4.4625   0.0000   0.0000   0.0000   0.2393
  -8.500  -0.9441   0.01354   0.00733   0.0001  1.0000  0.0361  -4.2751   0.0000   0.0000   0.0000   0.2408
  -8.250  -0.9235   0.01313   0.00694   0.0013  1.0000  0.0386  -4.0929   0.0000   0.0000   0.0000   0.2424
  -8.000  -0.9015   0.01287   0.00664   0.0025  1.0000  0.0408  -3.9082   0.0000   0.0000   0.0000   0.2440
  -7.750  -0.8813   0.01245   0.00624   0.0039  1.0000  0.0437  -3.7441   0.0000   0.0000   0.0000   0.2459
  -7.500  -0.8600   0.01217   0.00594   0.0051  1.0000  0.0466  -3.5817   0.0000   0.0000   0.0000   0.2477
  -7.250  -0.8394   0.01183   0.00563   0.0065  1.0000  0.0504  -3.4238   0.0000   0.0000   0.0000   0.2497
  -7.000  -0.8185   0.01153   0.00534   0.0078  1.0000  0.0547  -3.2673   0.0000   0.0000   0.0000   0.2518
  -6.750  -0.7974   0.01125   0.00508   0.0090  1.0000  0.0597  -3.1125   0.0000   0.0000   0.0000   0.2538
  -6.500  -0.7762   0.01098   0.00483   0.0103  1.0000  0.0655  -2.9600   0.0000   0.0000   0.0000   0.2560
  -6.250  -0.7496   0.01068   0.00458   0.0103  0.9994  0.0732  -2.7933   0.0000   0.0000   0.0000   0.2567
  -6.000  -0.7143   0.01036   0.00431   0.0086  0.9978  0.0845  -2.6149   0.0000   0.0000   0.0000   0.2551
  -5.750  -0.6795   0.01001   0.00405   0.0069  0.9958  0.0983  -2.4451   0.0000   0.0000   0.0000   0.2535
  -5.500  -0.6442   0.00968   0.00381   0.0051  0.9938  0.1148  -2.2776   0.0000   0.0000   0.0000   0.2514
  -5.250  -0.6092   0.00935   0.00358   0.0034  0.9916  0.1349  -2.1148   0.0000   0.0000   0.0000   0.2493
  -5.000  -0.5744   0.00900   0.00335   0.0017  0.9891  0.1577  -1.9653   0.0000   0.0000   0.0000   0.2468
  -4.750  -0.5383   0.00867   0.00314  -0.0002  0.9873  0.1844  -1.8190   0.0000   0.0000   0.0000   0.2436
  -4.500  -0.5043   0.00834   0.00294  -0.0017  0.9839  0.2126  -1.6807   0.0000   0.0000   0.0000   0.2408
  -4.250  -0.4686   0.00801   0.00274  -0.0035  0.9814  0.2431  -1.5505   0.0000   0.0000   0.0000   0.2367
  -3.750  -0.4027   0.00742   0.00242  -0.0058  0.9726  0.3048  -1.3176   0.0000   0.0000   0.0000   0.2300
  -3.500  -0.3733   0.00717   0.00227  -0.0060  0.9651  0.3347  -1.2173   0.0000   0.0000   0.0000   0.2283
  -3.250  -0.3452   0.00693   0.00214  -0.0060  0.9564  0.3638  -1.1253   0.0000   0.0000   0.0000   0.2272
  -3.000  -0.3180   0.00671   0.00203  -0.0057  0.9465  0.3927  -1.0392   0.0000   0.0000   0.0000   0.2267
  -2.750  -0.2914   0.00652   0.00192  -0.0053  0.9353  0.4212  -0.9613   0.0000   0.0000   0.0000   0.2267
  -2.500  -0.2653   0.00634   0.00182  -0.0047  0.9221  0.4494  -0.8885   0.0000   0.0000   0.0000   0.2271
  -2.250  -0.2391   0.00619   0.00173  -0.0042  0.9076  0.4775  -0.8208   0.0000   0.0000   0.0000   0.2275
  -2.000  -0.2129   0.00605   0.00164  -0.0036  0.8921  0.5054  -0.7581   0.0000   0.0000   0.0000   0.2279
  -1.750  -0.1864   0.00593   0.00157  -0.0031  0.8750  0.5331  -0.7004   0.0000   0.0000   0.0000   0.2283
  -1.500  -0.1599   0.00582   0.00150  -0.0027  0.8563  0.5606  -0.6473   0.0000   0.0000   0.0000   0.2286
  -1.250  -0.1333   0.00574   0.00145  -0.0022  0.8365  0.5880  -0.5991   0.0000   0.0000   0.0000   0.2288
  -1.000  -0.1067   0.00568   0.00140  -0.0017  0.8152  0.6152  -0.5550   0.0000   0.0000   0.0000   0.2290
  -0.750  -0.0800   0.00562   0.00137  -0.0013  0.7927  0.6421  -0.5149   0.0000   0.0000   0.0000   0.2290
  -0.500  -0.0534   0.00558   0.00134  -0.0009  0.7695  0.6685  -0.4782   0.0000   0.0000   0.0000   0.2293
  -0.250  -0.0268   0.00557   0.00133  -0.0004  0.7452  0.6944  -0.4447   0.0000   0.0000   0.0000   0.2301
   0.000   0.0000   0.00556   0.00132  -0.0000  0.7200  0.7200  -0.4136   0.0000   0.0000   0.0000   0.3371
   0.500   0.0534   0.00558   0.00134   0.0009  0.6685  0.7695  -0.4782   0.0000   0.0000   0.0000   0.2293
   0.750   0.0800   0.00562   0.00137   0.0013  0.6421  0.7927  -0.5149   0.0000   0.0000   0.0000   0.2290
   1.250   0.1333   0.00574   0.00145   0.0022  0.5880  0.8365  -0.5991   0.0000   0.0000   0.0000   0.2288
   1.500   0.1599   0.00582   0.00150   0.0026  0.5606  0.8563  -0.6473   0.0000   0.0000   0.0000   0.2286
   1.750   0.1864   0.00593   0.00157   0.0031  0.5331  0.8750  -0.7004   0.0000   0.0000   0.0000   0.2283
   2.000   0.2129   0.00605   0.00164   0.0036  0.5054  0.8921  -0.7581   0.0000   0.0000   0.0000   0.2279
   2.250   0.2391   0.00619   0.00173   0.0042  0.4775  0.9076  -0.8208   0.0000   0.0000   0.0000   0.2275
   2.500   0.2653   0.00634   0.00182   0.0047  0.4494  0.9221  -0.8885   0.0000   0.0000   0.0000   0.2271
   2.750   0.2914   0.00652   0.00192   0.0053  0.4212  0.9353  -0.9613   0.0000   0.0000   0.0000   0.2267
   3.000   0.3180   0.00671   0.00203   0.0057  0.3927  0.9465  -1.0392   0.0000   0.0000   0.0000   0.2267
   3.250   0.3452   0.00693   0.00214   0.0060  0.3638  0.9564  -1.1253   0.0000   0.0000   0.0000   0.2272
   3.500   0.3733   0.00717   0.00227   0.0060  0.3347  0.9651  -1.2173   0.0000   0.0000   0.0000   0.2283
   3.750   0.4027   0.00742   0.00242   0.0058  0.3049  0.9726  -1.3176   0.0000   0.0000   0.0000   0.2300
   4.000   0.4357   0.00771   0.00258   0.0046  0.2736  0.9770  -1.4305   0.0000   0.0000   0.0000   0.2336
   4.250   0.4686   0.00801   0.00274   0.0035  0.2431  0.9814  -1.5506   0.0000   0.0000   0.0000   0.2367
   4.500   0.5043   0.00833   0.00294   0.0017  0.2126  0.9839  -1.6807   0.0000   0.0000   0.0000   0.2408
   4.750   0.5383   0.00867   0.00314   0.0002  0.1844  0.9873  -1.8191   0.0000   0.0000   0.0000   0.2436
   5.000   0.5744   0.00900   0.00335  -0.0017  0.1577  0.9891  -1.9653   0.0000   0.0000   0.0000   0.2468
   5.250   0.6092   0.00935   0.00358  -0.0034  0.1349  0.9916  -2.1148   0.0000   0.0000   0.0000   0.2493
   5.500   0.6442   0.00968   0.00381  -0.0051  0.1148  0.9938  -2.2777   0.0000   0.0000   0.0000   0.2514
   5.750   0.6795   0.01001   0.00405  -0.0069  0.0983  0.9958  -2.4452   0.0000   0.0000   0.0000   0.2535
   6.000   0.7143   0.01036   0.00431  -0.0086  0.0845  0.9978  -2.6150   0.0000   0.0000   0.0000   0.2551
   6.250   0.7496   0.01068   0.00457  -0.0103  0.0732  0.9994  -2.7934   0.0000   0.0000   0.0000   0.2567
   6.500   0.7762   0.01098   0.00483  -0.0103  0.0655  1.0000  -2.9598   0.0000   0.0000   0.0000   0.2560
   6.750   0.7973   0.01125   0.00508  -0.0090  0.0597  1.0000  -3.1123   0.0000   0.0000   0.0000   0.2538
   7.000   0.8184   0.01152   0.00534  -0.0077  0.0547  1.0000  -3.2671   0.0000   0.0000   0.0000   0.2517
   7.250   0.8393   0.01183   0.00563  -0.0064  0.0504  1.0000  -3.4236   0.0000   0.0000   0.0000   0.2497
   7.500   0.8599   0.01217   0.00594  -0.0051  0.0466  1.0000  -3.5815   0.0000   0.0000   0.0000   0.2477
   7.750   0.8813   0.01245   0.00624  -0.0039  0.0438  1.0000  -3.7439   0.0000   0.0000   0.0000   0.2459
   8.000   0.9014   0.01287   0.00664  -0.0025  0.0408  1.0000  -3.9080   0.0000   0.0000   0.0000   0.2440
   8.250   0.9234   0.01313   0.00693  -0.0013  0.0386  1.0000  -4.0927   0.0000   0.0000   0.0000   0.2424
   8.500   0.9441   0.01354   0.00733  -0.0001  0.0361  1.0000  -4.2750   0.0000   0.0000   0.0000   0.2408
   8.750   0.9656   0.01389   0.00771   0.0011  0.0344  1.0000  -4.4624   0.0000   0.0000   0.0000   0.2393
   9.000   0.9872   0.01425   0.00809   0.0022  0.0327  1.0000  -4.6543   0.0000   0.0000   0.0000   0.2379
   9.250   1.0067   0.01484   0.00868   0.0036  0.0309  1.0000  -4.8356   0.0000   0.0000   0.0000   0.2363
   9.500   1.0293   0.01517   0.00906   0.0045  0.0298  1.0000  -5.0356   0.0000   0.0000   0.0000   0.2352
   9.750   1.0514   0.01557   0.00950   0.0054  0.0285  1.0000  -5.2370   0.0000   0.0000   0.0000   0.2341
  10.000   1.0726   0.01608   0.01001   0.0064  0.0272  1.0000  -5.4377   0.0000   0.0000   0.0000   0.2329
  10.250   1.0925   0.01672   0.01069   0.0076  0.0261  1.0000  -5.6291   0.0000   0.0000   0.0000   0.2316
  10.500   1.1148   0.01713   0.01115   0.0084  0.0251  1.0000  -5.8395   0.0000   0.0000   0.0000   0.2307
  10.750   1.1364   0.01760   0.01167   0.0093  0.0242  1.0000  -6.0635   0.0000   0.0000   0.0000   0.2297
  11.000   1.1570   0.01816   0.01225   0.0102  0.0234  1.0000  -6.2896   0.0000   0.0000   0.0000   0.2287
  11.250   1.1731   0.01909   0.01321   0.0118  0.0224  1.0000  -6.4868   0.0000   0.0000   0.0000   0.2272
  11.500   1.1925   0.01970   0.01390   0.0129  0.0219  1.0000  -6.7074   0.0000   0.0000   0.0000   0.2261
  11.750   1.2121   0.02028   0.01455   0.0139  0.0213  1.0000  -6.9335   0.0000   0.0000   0.0000   0.2250
  12.000   1.2306   0.02091   0.01525   0.0151  0.0207  1.0000  -7.1571   0.0000   0.0000   0.0000   0.2238
  12.250   1.2483   0.02158   0.01597   0.0163  0.0202  1.0000  -7.3800   0.0000   0.0000   0.0000   0.2226
  12.500   1.2646   0.02230   0.01673   0.0177  0.0197  1.0000  -7.5994   0.0000   0.0000   0.0000   0.2214
  12.750   1.2764   0.02318   0.01767   0.0197  0.0191  1.0000  -7.7944   0.0000   0.0000   0.0000   0.2195
  13.000   1.2782   0.02458   0.01914   0.0228  0.0186  1.0000  -7.9233   0.0000   0.0000   0.0000   0.2167
  13.250   1.2882   0.02556   0.02021   0.0247  0.0183  1.0000  -8.1063   0.0000   0.0000   0.0000   0.2150
  13.500   1.3002   0.02645   0.02119   0.0262  0.0180  1.0000  -8.3060   0.0000   0.0000   0.0000   0.2136
  13.750   1.3102   0.02753   0.02236   0.0276  0.0176  1.0000  -8.4929   0.0000   0.0000   0.0000   0.2122
  14.000   1.3185   0.02881   0.02373   0.0289  0.0173  1.0000  -8.6679   0.0000   0.0000   0.0000   0.2109
  14.250   1.3255   0.03027   0.02529   0.0300  0.0170  1.0000  -8.8356   0.0000   0.0000   0.0000   0.2097
  14.500   1.3315   0.03193   0.02703   0.0308  0.0167  1.0000  -8.9970   0.0000   0.0000   0.0000   0.2087
  14.750   1.3365   0.03381   0.02900   0.0313  0.0164  1.0000  -9.1510   0.0000   0.0000   0.0000   0.2079
  15.000   1.3400   0.03598   0.03126   0.0315  0.0162  1.0000  -9.2938   0.0000   0.0000   0.0000   0.2073
  15.250   1.3415   0.03853   0.03390   0.0312  0.0159  1.0000  -9.4204   0.0000   0.0000   0.0000   0.2070
  15.500   1.3402   0.04159   0.03706   0.0305  0.0157  1.0000  -9.5211   0.0000   0.0000   0.0000   0.2070
  15.750   1.3352   0.04530   0.04088   0.0293  0.0156  1.0000  -9.5877   0.0000   0.0000   0.0000   0.2072
  16.000   1.3259   0.04974   0.04544   0.0275  0.0154  1.0000  -9.6131   0.0000   0.0000   0.0000   0.2078
  16.250   1.3124   0.05494   0.05078   0.0253  0.0152  1.0000  -9.5983   0.0000   0.0000   0.0000   0.2087
  16.500   1.2948   0.06083   0.05682   0.0226  0.0151  1.0000  -9.5442   0.0000   0.0000   0.0000   0.2098
  16.750   1.2819   0.06631   0.06243   0.0200  0.0150  1.0000  -9.5279   0.0000   0.0000   0.0000   0.2112
  17.000   1.2702   0.07175   0.06800   0.0172  0.0149  1.0000  -9.5196   0.0000   0.0000   0.0000   0.2126
  17.250   1.2569   0.07763   0.07401   0.0142  0.0149  1.0000  -9.4883   0.0000   0.0000   0.0000   0.2143
  17.500   1.2417   0.08390   0.08041   0.0109  0.0148  1.0000  -9.4327   0.0000   0.0000   0.0000   0.2162
  17.750   1.2253   0.09053   0.08716   0.0075  0.0148  1.0000  -9.3568   0.0000   0.0000   0.0000   0.2183
  18.000   1.2079   0.09747   0.09422   0.0038  0.0148  1.0000  -9.2623   0.0000   0.0000   0.0000   0.2207
  18.250   1.1895   0.10467   0.10155   0.0001  0.0147  1.0000  -9.1475   0.0000   0.0000   0.0000   0.2233
  18.500   1.1706   0.11218   0.10918  -0.0040  0.0147  1.0000  -9.0145   0.0000   0.0000   0.0000   0.2262
  18.750   1.1510   0.11998   0.11710  -0.0082  0.0147  1.0000  -8.8600   0.0000   0.0000   0.0000   0.2294
  19.000   1.1304   0.12814   0.12539  -0.0126  0.0146  1.0000  -8.6778   0.0000   0.0000   0.0000   0.2331
  19.250   1.1085   0.13686   0.13424  -0.0175  0.0146  1.0000  -8.4584   0.0000   0.0000   0.0000   0.2373
  19.500   1.0837   0.14652   0.14403  -0.0231  0.0146  1.0000  -8.1744   0.0000   0.0000   0.0000   0.2424
  19.750   1.0494   0.15882   0.15650  -0.0303  0.0146  1.0000  -7.7168   0.0000   0.0000   0.0000   0.2498


