xflr5 v6.61

 Calculated polar for: NACA 0012

 1 1 Reynolds number fixed          Mach number fixed         

 xtrf =   1.000 (top)        1.000 (bottom)
 Mach =   0.000     Re =     0.580 e 6     Ncrit =   9.000

  alpha     CL        CD       CDp       Cm    Top Xtr Bot Xtr   Cpmin    Chinge    XCp    
 ------- -------- --------- --------- -------- ------- ------- -------- --------- ---------
 -10.000  -1.0521   0.01841   0.01197  -0.0095  1.0000  0.0310  -5.2845   0.0000   0.0000   0.0000   0.2299
  -9.750  -1.0346   0.01757   0.01113  -0.0081  1.0000  0.0324  -5.1106   0.0000   0.0000   0.0000   0.2314
  -9.500  -1.0135   0.01706   0.01059  -0.0070  1.0000  0.0339  -4.9189   0.0000   0.0000   0.0000   0.2326
  -9.250  -0.9918   0.01662   0.01009  -0.0060  1.0000  0.0354  -4.7293   0.0000   0.0000   0.0000   0.2337
  -9.000  -0.9729   0.01595   0.00941  -0.0046  1.0000  0.0372  -4.5544   0.0000   0.0000   0.0000   0.2353
  -8.750  -0.9516   0.01553   0.00897  -0.0036  1.0000  0.0393  -4.3670   0.0000   0.0000   0.0000   0.2367
  -8.500  -0.9308   0.01507   0.00847  -0.0023  1.0000  0.0414  -4.1886   0.0000   0.0000   0.0000   0.2382
  -8.250  -0.9108   0.01458   0.00800  -0.0010  1.0000  0.0439  -4.0128   0.0000   0.0000   0.0000   0.2399
  -8.000  -0.8894   0.01422   0.00759   0.0002  1.0000  0.0465  -3.8360   0.0000   0.0000   0.0000   0.2415
  -7.750  -0.8695   0.01374   0.00713   0.0016  1.0000  0.0497  -3.6785   0.0000   0.0000   0.0000   0.2433
  -7.500  -0.8488   0.01336   0.00674   0.0029  1.0000  0.0534  -3.5221   0.0000   0.0000   0.0000   0.2452
  -7.250  -0.8277   0.01303   0.00641   0.0042  1.0000  0.0577  -3.3652   0.0000   0.0000   0.0000   0.2470
  -7.000  -0.8074   0.01263   0.00604   0.0055  1.0000  0.0627  -3.2138   0.0000   0.0000   0.0000   0.2491
  -6.750  -0.7868   0.01227   0.00570   0.0069  1.0000  0.0685  -3.0636   0.0000   0.0000   0.0000   0.2512
  -6.500  -0.7660   0.01194   0.00540   0.0082  1.0000  0.0756  -2.9146   0.0000   0.0000   0.0000   0.2534
  -6.250  -0.7451   0.01162   0.00512   0.0094  1.0000  0.0844  -2.7674   0.0000   0.0000   0.0000   0.2556
  -6.000  -0.7241   0.01130   0.00486   0.0107  1.0000  0.0947  -2.6320   0.0000   0.0000   0.0000   0.2579
  -5.750  -0.7030   0.01100   0.00461   0.0118  1.0000  0.1074  -2.4998   0.0000   0.0000   0.0000   0.2602
  -5.500  -0.6816   0.01069   0.00439   0.0129  1.0000  0.1229  -2.3690   0.0000   0.0000   0.0000   0.2626
  -5.250  -0.6462   0.01034   0.00415   0.0111  0.9980  0.1455  -2.2038   0.0000   0.0000   0.0000   0.2609
  -5.000  -0.6100   0.00997   0.00391   0.0090  0.9955  0.1725  -2.0435   0.0000   0.0000   0.0000   0.2587
  -4.750  -0.5732   0.00961   0.00369   0.0069  0.9932  0.2028  -1.8944   0.0000   0.0000   0.0000   0.2561
  -4.500  -0.5375   0.00925   0.00349   0.0050  0.9899  0.2351  -1.7509   0.0000   0.0000   0.0000   0.2535
  -4.250  -0.5003   0.00891   0.00330   0.0028  0.9875  0.2695  -1.6117   0.0000   0.0000   0.0000   0.2499
  -4.000  -0.4648   0.00859   0.00312   0.0010  0.9836  0.3038  -1.4856   0.0000   0.0000   0.0000   0.2467
  -3.750  -0.4272   0.00828   0.00296  -0.0012  0.9809  0.3391  -1.3598   0.0000   0.0000   0.0000   0.2417
  -3.500  -0.3914   0.00799   0.00280  -0.0029  0.9767  0.3736  -1.2477   0.0000   0.0000   0.0000   0.2371
  -3.250  -0.3552   0.00770   0.00266  -0.0047  0.9730  0.4076  -1.1407   0.0000   0.0000   0.0000   0.2313
  -3.000  -0.3231   0.00745   0.00252  -0.0056  0.9662  0.4398  -1.0467   0.0000   0.0000   0.0000   0.2274
  -2.500  -0.2632   0.00700   0.00228  -0.0062  0.9489  0.5010  -0.8858   0.0000   0.0000   0.0000   0.2213
  -2.250  -0.2355   0.00680   0.00218  -0.0059  0.9380  0.5302  -0.8165   0.0000   0.0000   0.0000   0.2198
  -2.000  -0.2087   0.00662   0.00209  -0.0054  0.9258  0.5590  -0.7536   0.0000   0.0000   0.0000   0.2189
  -1.750  -0.1825   0.00647   0.00200  -0.0048  0.9117  0.5873  -0.6965   0.0000   0.0000   0.0000   0.2188
  -1.500  -0.1565   0.00633   0.00193  -0.0041  0.8958  0.6153  -0.6442   0.0000   0.0000   0.0000   0.2189
  -1.250  -0.1305   0.00621   0.00186  -0.0034  0.8791  0.6429  -0.5968   0.0000   0.0000   0.0000   0.2192
  -1.000  -0.1045   0.00611   0.00181  -0.0027  0.8603  0.6700  -0.5533   0.0000   0.0000   0.0000   0.2194
  -0.500  -0.0523   0.00598   0.00174  -0.0013  0.8189  0.7226  -0.4776   0.0000   0.0000   0.0000   0.2198
  -0.250  -0.0262   0.00595   0.00172  -0.0007  0.7965  0.7481  -0.4443   0.0000   0.0000   0.0000   0.2197
   0.250   0.0262   0.00595   0.00172   0.0007  0.7481  0.7965  -0.4443   0.0000   0.0000   0.0000   0.2197
   0.500   0.0523   0.00598   0.00174   0.0013  0.7226  0.8189  -0.4776   0.0000   0.0000   0.0000   0.2198
   0.750   0.0785   0.00604   0.00177   0.0020  0.6965  0.8406  -0.5139   0.0000   0.0000   0.0000   0.2199
   1.000   0.1045   0.00611   0.00181   0.0027  0.6700  0.8603  -0.5533   0.0000   0.0000   0.0000   0.2194
   1.250   0.1305   0.00621   0.00186   0.0034  0.6429  0.8791  -0.5968   0.0000   0.0000   0.0000   0.2192
   1.750   0.1825   0.00647   0.00200   0.0048  0.5873  0.9117  -0.6965   0.0000   0.0000   0.0000   0.2188
   2.000   0.2087   0.00662   0.00209   0.0054  0.5590  0.9258  -0.7536   0.0000   0.0000   0.0000   0.2189
   2.250   0.2355   0.00680   0.00218   0.0059  0.5302  0.9380  -0.8165   0.0000   0.0000   0.0000   0.2198
   2.500   0.2632   0.00700   0.00228   0.0062  0.5010  0.9489  -0.8858   0.0000   0.0000   0.0000   0.2213
   3.000   0.3231   0.00745   0.00252   0.0056  0.4398  0.9662  -1.0467   0.0000   0.0000   0.0000   0.2274
   3.250   0.3552   0.00770   0.00266   0.0047  0.4076  0.9730  -1.1407   0.0000   0.0000   0.0000   0.2313
   3.500   0.3914   0.00799   0.00280   0.0029  0.3736  0.9768  -1.2477   0.0000   0.0000   0.0000   0.2371
   3.750   0.4272   0.00828   0.00296   0.0012  0.3391  0.9809  -1.3598   0.0000   0.0000   0.0000   0.2418
   4.000   0.4648   0.00859   0.00312  -0.0010  0.3038  0.9836  -1.4856   0.0000   0.0000   0.0000   0.2467
   4.250   0.5003   0.00891   0.00330  -0.0028  0.2695  0.9875  -1.6118   0.0000   0.0000   0.0000   0.2499
   4.500   0.5375   0.00925   0.00349  -0.0050  0.2351  0.9900  -1.7509   0.0000   0.0000   0.0000   0.2535
   4.750   0.5732   0.00961   0.00369  -0.0069  0.2028  0.9932  -1.8944   0.0000   0.0000   0.0000   0.2561
   5.000   0.6100   0.00997   0.00391  -0.0090  0.1725  0.9955  -2.0436   0.0000   0.0000   0.0000   0.2587
   5.250   0.6462   0.01034   0.00415  -0.0111  0.1454  0.9980  -2.2039   0.0000   0.0000   0.0000   0.2609
   5.500   0.6816   0.01069   0.00439  -0.0129  0.1229  1.0000  -2.3688   0.0000   0.0000   0.0000   0.2625
   5.750   0.7029   0.01100   0.00461  -0.0118  0.1075  1.0000  -2.4996   0.0000   0.0000   0.0000   0.2602
   6.000   0.7241   0.01130   0.00486  -0.0106  0.0947  1.0000  -2.6318   0.0000   0.0000   0.0000   0.2579
   6.250   0.7450   0.01162   0.00512  -0.0094  0.0844  1.0000  -2.7671   0.0000   0.0000   0.0000   0.2556
   6.500   0.7659   0.01194   0.00540  -0.0081  0.0756  1.0000  -2.9144   0.0000   0.0000   0.0000   0.2534
   6.750   0.7867   0.01227   0.00570  -0.0069  0.0685  1.0000  -3.0633   0.0000   0.0000   0.0000   0.2512
   7.000   0.8073   0.01263   0.00604  -0.0055  0.0628  1.0000  -3.2135   0.0000   0.0000   0.0000   0.2491
   7.250   0.8276   0.01303   0.00641  -0.0042  0.0577  1.0000  -3.3650   0.0000   0.0000   0.0000   0.2470
   7.500   0.8487   0.01335   0.00674  -0.0029  0.0534  1.0000  -3.5219   0.0000   0.0000   0.0000   0.2452
   7.750   0.8694   0.01374   0.00713  -0.0016  0.0497  1.0000  -3.6783   0.0000   0.0000   0.0000   0.2433
   8.000   0.8894   0.01422   0.00759  -0.0002  0.0465  1.0000  -3.8359   0.0000   0.0000   0.0000   0.2415
   8.250   0.9107   0.01458   0.00800   0.0010  0.0439  1.0000  -4.0127   0.0000   0.0000   0.0000   0.2399
   8.500   0.9308   0.01507   0.00847   0.0023  0.0414  1.0000  -4.1885   0.0000   0.0000   0.0000   0.2382
   8.750   0.9515   0.01553   0.00897   0.0036  0.0393  1.0000  -4.3670   0.0000   0.0000   0.0000   0.2367
   9.000   0.9729   0.01595   0.00941   0.0046  0.0372  1.0000  -4.5545   0.0000   0.0000   0.0000   0.2353
   9.250   0.9919   0.01662   0.01009   0.0060  0.0354  1.0000  -4.7294   0.0000   0.0000   0.0000   0.2337
   9.500   1.0136   0.01706   0.01059   0.0070  0.0339  1.0000  -4.9191   0.0000   0.0000   0.0000   0.2326
   9.750   1.0346   0.01757   0.01113   0.0080  0.0324  1.0000  -5.1108   0.0000   0.0000   0.0000   0.2314
  10.000   1.0521   0.01841   0.01197   0.0095  0.0310  1.0000  -5.2848   0.0000   0.0000   0.0000   0.2299
  10.250   1.0726   0.01899   0.01263   0.0106  0.0300  1.0000  -5.4724   0.0000   0.0000   0.0000   0.2287
  10.500   1.0932   0.01954   0.01325   0.0116  0.0289  1.0000  -5.6660   0.0000   0.0000   0.0000   0.2277
  10.750   1.1131   0.02012   0.01386   0.0126  0.0278  1.0000  -5.8779   0.0000   0.0000   0.0000   0.2266
  11.000   1.1292   0.02102   0.01477   0.0141  0.0267  1.0000  -6.0732   0.0000   0.0000   0.0000   0.2251
  11.250   1.1456   0.02189   0.01572   0.0155  0.0260  1.0000  -6.2652   0.0000   0.0000   0.0000   0.2237
  11.500   1.1635   0.02259   0.01652   0.0168  0.0252  1.0000  -6.4697   0.0000   0.0000   0.0000   0.2224
  11.750   1.1800   0.02336   0.01736   0.0182  0.0245  1.0000  -6.6711   0.0000   0.0000   0.0000   0.2211
  12.000   1.1952   0.02415   0.01822   0.0196  0.0238  1.0000  -6.8709   0.0000   0.0000   0.0000   0.2197
  12.250   1.2069   0.02500   0.01912   0.0216  0.0233  1.0000  -7.0562   0.0000   0.0000   0.0000   0.2178
  12.500   1.2145   0.02615   0.02030   0.0240  0.0227  1.0000  -7.2161   0.0000   0.0000   0.0000   0.2156
  12.750   1.2170   0.02785   0.02208   0.0265  0.0222  1.0000  -7.3333   0.0000   0.0000   0.0000   0.2132
  13.000   1.2271   0.02891   0.02327   0.0281  0.0219  1.0000  -7.5043   0.0000   0.0000   0.0000   0.2116
  13.250   1.2356   0.03018   0.02466   0.0296  0.0215  1.0000  -7.6641   0.0000   0.0000   0.0000   0.2102
  13.500   1.2428   0.03161   0.02621   0.0308  0.0211  1.0000  -7.8176   0.0000   0.0000   0.0000   0.2089
  13.750   1.2492   0.03319   0.02790   0.0318  0.0206  1.0000  -7.9680   0.0000   0.0000   0.0000   0.2078
  14.000   1.2550   0.03492   0.02973   0.0325  0.0202  1.0000  -8.1166   0.0000   0.0000   0.0000   0.2069
  14.250   1.2599   0.03683   0.03173   0.0328  0.0198  1.0000  -8.2615   0.0000   0.0000   0.0000   0.2062
  14.500   1.2637   0.03900   0.03398   0.0329  0.0195  1.0000  -8.3981   0.0000   0.0000   0.0000   0.2057
  14.750   1.2653   0.04153   0.03659   0.0326  0.0192  1.0000  -8.5172   0.0000   0.0000   0.0000   0.2054
  15.000   1.2636   0.04459   0.03975   0.0321  0.0189  1.0000  -8.6056   0.0000   0.0000   0.0000   0.2053
  15.250   1.2571   0.04835   0.04362   0.0313  0.0187  1.0000  -8.6471   0.0000   0.0000   0.0000   0.2053
  15.500   1.2461   0.05283   0.04825   0.0301  0.0185  1.0000  -8.6424   0.0000   0.0000   0.0000   0.2055
  15.750   1.2412   0.05684   0.05242   0.0282  0.0183  1.0000  -8.6889   0.0000   0.0000   0.0000   0.2063
  16.000   1.2341   0.06134   0.05707   0.0260  0.0182  1.0000  -8.7123   0.0000   0.0000   0.0000   0.2074
  16.250   1.2245   0.06629   0.06218   0.0234  0.0181  1.0000  -8.7131   0.0000   0.0000   0.0000   0.2087
  16.500   1.2127   0.07174   0.06777   0.0206  0.0180  1.0000  -8.6958   0.0000   0.0000   0.0000   0.2103
  16.750   1.1990   0.07769   0.07388   0.0173  0.0179  1.0000  -8.6534   0.0000   0.0000   0.0000   0.2123
  17.000   1.1831   0.08416   0.08051   0.0138  0.0179  1.0000  -8.5829   0.0000   0.0000   0.0000   0.2145
  17.250   1.1652   0.09122   0.08772   0.0098  0.0178  1.0000  -8.4834   0.0000   0.0000   0.0000   0.2172
  17.500   1.1450   0.09889   0.09554   0.0055  0.0178  1.0000  -8.3489   0.0000   0.0000   0.0000   0.2203
  17.750   1.1222   0.10734   0.10415   0.0007  0.0177  1.0000  -8.1716   0.0000   0.0000   0.0000   0.2240
  18.000   1.0957   0.11683   0.11381  -0.0048  0.0177  1.0000  -7.9349   0.0000   0.0000   0.0000   0.2285
  18.250   1.0622   0.12814   0.12530  -0.0114  0.0178  1.0000  -7.5907   0.0000   0.0000   0.0000   0.2345
  18.500   1.0004   0.14690   0.14432  -0.0224  0.0180  1.0000  -6.8206   0.0000   0.0000   0.0000   0.2462


