xflr5 v6.61

 Calculated polar for: NACA 0009

 1 1 Reynolds number fixed          Mach number fixed         

 xtrf =   1.000 (top)        1.000 (bottom)
 Mach =   0.000     Re =     0.180 e 6     Ncrit =   9.000

  alpha     CL        CD       CDp       Cm    Top Xtr Bot Xtr   Cpmin    Chinge    XCp    
 ------- -------- --------- --------- -------- ------- ------- -------- --------- ---------
  -9.250  -0.8724   0.05128   0.04636  -0.0184  1.0000  0.0401  -4.3774   0.0000   0.0000   0.0000   0.2217
  -9.000  -0.8714   0.04670   0.04144  -0.0171  1.0000  0.0397  -4.4051   0.0000   0.0000   0.0000   0.2232
  -8.750  -0.8686   0.04211   0.03635  -0.0155  1.0000  0.0396  -4.4468   0.0000   0.0000   0.0000   0.2252
  -8.500  -0.8610   0.03786   0.03158  -0.0138  1.0000  0.0395  -4.4607   0.0000   0.0000   0.0000   0.2271
  -8.250  -0.8488   0.03402   0.02720  -0.0121  1.0000  0.0393  -4.4424   0.0000   0.0000   0.0000   0.2290
  -8.000  -0.8326   0.03081   0.02346  -0.0106  1.0000  0.0397  -4.3846   0.0000   0.0000   0.0000   0.2307
  -7.750  -0.8137   0.02822   0.02031  -0.0091  1.0000  0.0405  -4.2977   0.0000   0.0000   0.0000   0.2324
  -7.500  -0.7915   0.02635   0.01840  -0.0086  1.0000  0.0425  -4.1055   0.0000   0.0000   0.0000   0.2330
  -7.250  -0.7688   0.02489   0.01669  -0.0077  1.0000  0.0452  -3.9584   0.0000   0.0000   0.0000   0.2340
  -7.000  -0.7454   0.02307   0.01464  -0.0068  1.0000  0.0472  -3.8241   0.0000   0.0000   0.0000   0.2350
  -6.750  -0.7214   0.02174   0.01327  -0.0062  1.0000  0.0498  -3.6525   0.0000   0.0000   0.0000   0.2359
  -6.500  -0.6976   0.02049   0.01194  -0.0054  1.0000  0.0536  -3.4823   0.0000   0.0000   0.0000   0.2368
  -6.250  -0.6736   0.01950   0.01081  -0.0046  1.0000  0.0582  -3.3105   0.0000   0.0000   0.0000   0.2380
  -6.000  -0.6504   0.01835   0.00973  -0.0038  1.0000  0.0630  -3.1318   0.0000   0.0000   0.0000   0.2391
  -5.750  -0.6273   0.01741   0.00882  -0.0030  1.0000  0.0699  -2.9517   0.0000   0.0000   0.0000   0.2404
  -5.500  -0.6045   0.01650   0.00792  -0.0020  1.0000  0.0783  -2.7999   0.0000   0.0000   0.0000   0.2420
  -5.250  -0.5824   0.01558   0.00712  -0.0011  1.0000  0.0897  -2.6444   0.0000   0.0000   0.0000   0.2436
  -5.000  -0.5602   0.01473   0.00637  -0.0002  1.0000  0.1070  -2.4921   0.0000   0.0000   0.0000   0.2454
  -4.750  -0.5386   0.01382   0.00566   0.0008  1.0000  0.1365  -2.3404   0.0000   0.0000   0.0000   0.2474
  -4.500  -0.5176   0.01284   0.00506   0.0018  1.0000  0.1945  -2.1879   0.0000   0.0000   0.0000   0.2495
  -4.250  -0.4968   0.01196   0.00463   0.0028  1.0000  0.2796  -2.0367   0.0000   0.0000   0.0000   0.2518
  -4.000  -0.4754   0.01130   0.00432   0.0038  1.0000  0.3625  -1.8923   0.0000   0.0000   0.0000   0.2543
  -3.750  -0.4537   0.01077   0.00410   0.0049  1.0000  0.4370  -1.7478   0.0000   0.0000   0.0000   0.2573
  -3.500  -0.4317   0.01033   0.00393   0.0060  1.0000  0.5054  -1.6047   0.0000   0.0000   0.0000   0.2607
  -3.250  -0.4094   0.00996   0.00379   0.0073  1.0000  0.5695  -1.4693   0.0000   0.0000   0.0000   0.2646
  -2.750  -0.3648   0.00937   0.00366   0.0101  1.0000  0.6870  -1.2223   0.0000   0.0000   0.0000   0.2747
  -2.500  -0.3426   0.00917   0.00366   0.0117  1.0000  0.7407  -1.1104   0.0000   0.0000   0.0000   0.2814
  -2.250  -0.3206   0.00905   0.00369   0.0135  1.0000  0.7911  -1.0051   0.0000   0.0000   0.0000   0.2894
  -2.000  -0.2988   0.00901   0.00377   0.0154  1.0000  0.8378  -0.9082   0.0000   0.0000   0.0000   0.2991
  -1.750  -0.2759   0.00906   0.00389   0.0172  1.0000  0.8801  -0.8154   0.0000   0.0000   0.0000   0.3100
  -1.500  -0.2473   0.00919   0.00404   0.0178  1.0000  0.9172  -0.7227   0.0000   0.0000   0.0000   0.3198
  -1.250  -0.2082   0.00937   0.00417   0.0160  1.0000  0.9476  -0.6254   0.0000   0.0000   0.0000   0.3247
  -1.000  -0.1584   0.00954   0.00427   0.0118  1.0000  0.9685  -0.5282   0.0000   0.0000   0.0000   0.3221
  -0.750  -0.1017   0.00965   0.00432   0.0059  1.0000  0.9821  -0.4412   0.0000   0.0000   0.0000   0.3054
  -0.500  -0.0442   0.00968   0.00431  -0.0004  1.0000  0.9929  -0.3706   0.0000   0.0000   0.0000   0.2384
  -0.250   0.0015   0.00962   0.00424  -0.0046  1.0000  1.0000  -0.3219   0.0000   0.0000   0.0000   3.3200
   0.000   0.0000   0.00956   0.00418  -0.0000  1.0000  1.0000  -0.3103   0.0000   0.0000   0.0000   0.4091
   0.250  -0.0015   0.00962   0.00424   0.0046  1.0000  1.0000  -0.3219   0.0000   0.0000   0.0000   3.3256
   0.500   0.0441   0.00968   0.00431   0.0004  0.9929  1.0000  -0.3706   0.0000   0.0000   0.0000   0.2383
   0.750   0.1017   0.00965   0.00432  -0.0059  0.9820  1.0000  -0.4411   0.0000   0.0000   0.0000   0.3054
   1.000   0.1584   0.00953   0.00427  -0.0118  0.9685  1.0000  -0.5282   0.0000   0.0000   0.0000   0.3221
   1.250   0.2082   0.00937   0.00416  -0.0160  0.9476  1.0000  -0.6254   0.0000   0.0000   0.0000   0.3247
   1.500   0.2473   0.00919   0.00404  -0.0178  0.9173  1.0000  -0.7227   0.0000   0.0000   0.0000   0.3198
   1.750   0.2759   0.00906   0.00389  -0.0172  0.8801  1.0000  -0.8153   0.0000   0.0000   0.0000   0.3100
   2.000   0.2988   0.00901   0.00377  -0.0154  0.8378  1.0000  -0.9081   0.0000   0.0000   0.0000   0.2991
   2.250   0.3206   0.00905   0.00369  -0.0135  0.7911  1.0000  -1.0051   0.0000   0.0000   0.0000   0.2894
   2.500   0.3426   0.00917   0.00366  -0.0117  0.7407  1.0000  -1.1103   0.0000   0.0000   0.0000   0.2814
   2.750   0.3648   0.00937   0.00366  -0.0101  0.6870  1.0000  -1.2222   0.0000   0.0000   0.0000   0.2747
   3.000   0.3871   0.00964   0.00371  -0.0086  0.6299  1.0000  -1.3444   0.0000   0.0000   0.0000   0.2692
   3.250   0.4094   0.00995   0.00379  -0.0073  0.5695  1.0000  -1.4693   0.0000   0.0000   0.0000   0.2646
   3.500   0.4316   0.01033   0.00393  -0.0060  0.5054  1.0000  -1.6046   0.0000   0.0000   0.0000   0.2606
   3.750   0.4537   0.01077   0.00410  -0.0049  0.4371  1.0000  -1.7477   0.0000   0.0000   0.0000   0.2573
   4.000   0.4754   0.01130   0.00432  -0.0038  0.3625  1.0000  -1.8922   0.0000   0.0000   0.0000   0.2543
   4.250   0.4968   0.01196   0.00463  -0.0028  0.2797  1.0000  -2.0366   0.0000   0.0000   0.0000   0.2518
   4.500   0.5176   0.01284   0.00505  -0.0018  0.1945  1.0000  -2.1878   0.0000   0.0000   0.0000   0.2495
   4.750   0.5385   0.01382   0.00566  -0.0008  0.1365  1.0000  -2.3403   0.0000   0.0000   0.0000   0.2474
   5.000   0.5602   0.01473   0.00637   0.0002  0.1070  1.0000  -2.4920   0.0000   0.0000   0.0000   0.2454
   5.250   0.5824   0.01558   0.00712   0.0011  0.0897  1.0000  -2.6444   0.0000   0.0000   0.0000   0.2436
   5.500   0.6045   0.01650   0.00792   0.0020  0.0783  1.0000  -2.7998   0.0000   0.0000   0.0000   0.2419
   5.750   0.6273   0.01741   0.00882   0.0030  0.0699  1.0000  -2.9517   0.0000   0.0000   0.0000   0.2404
   6.000   0.6504   0.01835   0.00973   0.0038  0.0630  1.0000  -3.1318   0.0000   0.0000   0.0000   0.2391
   6.250   0.6736   0.01950   0.01081   0.0046  0.0582  1.0000  -3.3105   0.0000   0.0000   0.0000   0.2380
   6.500   0.6977   0.02049   0.01194   0.0054  0.0536  1.0000  -3.4823   0.0000   0.0000   0.0000   0.2368
   6.750   0.7214   0.02174   0.01327   0.0061  0.0498  1.0000  -3.6526   0.0000   0.0000   0.0000   0.2359
   7.000   0.7454   0.02307   0.01464   0.0068  0.0472  1.0000  -3.8242   0.0000   0.0000   0.0000   0.2350
   7.250   0.7688   0.02489   0.01669   0.0077  0.0452  1.0000  -3.9585   0.0000   0.0000   0.0000   0.2340
   7.500   0.7915   0.02635   0.01840   0.0085  0.0425  1.0000  -4.1056   0.0000   0.0000   0.0000   0.2330
   7.750   0.8137   0.02822   0.02031   0.0091  0.0405  1.0000  -4.2977   0.0000   0.0000   0.0000   0.2324
   8.000   0.8326   0.03081   0.02347   0.0106  0.0397  1.0000  -4.3846   0.0000   0.0000   0.0000   0.2307
   8.250   0.8488   0.03402   0.02720   0.0121  0.0393  1.0000  -4.4425   0.0000   0.0000   0.0000   0.2290
   8.500   0.8611   0.03787   0.03158   0.0138  0.0395  1.0000  -4.4607   0.0000   0.0000   0.0000   0.2271
   8.750   0.8687   0.04211   0.03636   0.0155  0.0396  1.0000  -4.4468   0.0000   0.0000   0.0000   0.2252
   9.000   0.8714   0.04671   0.04145   0.0171  0.0397  1.0000  -4.4051   0.0000   0.0000   0.0000   0.2232
   9.250   0.8725   0.05129   0.04637   0.0184  0.0401  1.0000  -4.3776   0.0000   0.0000   0.0000   0.2217
   9.500   0.8878   0.05496   0.04997   0.0187  0.0409  1.0000  -4.5032   0.0000   0.0000   0.0000   0.2214
  13.250   0.5301   0.14127   0.13758  -0.0123  0.0591  1.0000  -1.6026   0.0000   0.0000   0.0000   0.2659
  13.500   0.5459   0.14455   0.14087  -0.0110  0.0580  1.0000  -1.7184   0.0000   0.0000   0.0000   0.2625
  13.750   0.5224   0.14670   0.14301  -0.0145  0.0571  1.0000  -1.5026   0.0000   0.0000   0.0000   0.2704
  14.000   0.5189   0.14928   0.14558  -0.0160  0.0549  1.0000  -1.4451   0.0000   0.0000   0.0000   0.2735
  14.250   0.5227   0.15172   0.14803  -0.0166  0.0533  1.0000  -1.4589   0.0000   0.0000   0.0000   0.2741
  14.500   0.5471   0.15561   0.15195  -0.0144  0.0520  1.0000  -1.6503   0.0000   0.0000   0.0000   0.2682
  14.750   0.5280   0.15745   0.15377  -0.0181  0.0516  1.0000  -1.4460   0.0000   0.0000   0.0000   0.2764
  15.000   0.5231   0.16002   0.15633  -0.0203  0.0497  1.0000  -1.3614   0.0000   0.0000   0.0000   0.2809
  15.250   0.5259   0.16256   0.15888  -0.0213  0.0481  1.0000  -1.3672   0.0000   0.0000   0.0000   0.2824
  15.500   0.5334   0.16513   0.16146  -0.0214  0.0468  1.0000  -1.4320   0.0000   0.0000   0.0000   0.2818
  15.750   0.7557   0.19842   0.19441  -0.0535  0.0396  1.0000  -1.8972   0.0000   0.0000   0.0000   0.3086
  16.000   0.7619   0.20218   0.19817  -0.0558  0.0381  1.0000  -1.8777   0.0000   0.0000   0.0000   0.3107
  16.250   0.7695   0.20561   0.20160  -0.0573  0.0370  1.0000  -1.8996   0.0000   0.0000   0.0000   0.3117
  16.500   0.7789   0.20891   0.20491  -0.0580  0.0361  1.0000  -1.9719   0.0000   0.0000   0.0000   0.3113
  16.750   0.7917   0.21344   0.20945  -0.0575  0.0356  1.0000  -2.0850   0.0000   0.0000   0.0000   0.3091
  17.000   0.7908   0.21684   0.21281  -0.0629  0.0351  1.0000  -1.8903   0.0000   0.0000   0.0000   0.3158
  17.250   0.7972   0.22062   0.21659  -0.0657  0.0338  1.0000  -1.8371   0.0000   0.0000   0.0000   0.3184
  17.500   0.8049   0.22413   0.22011  -0.0677  0.0327  1.0000  -1.8345   0.0000   0.0000   0.0000   0.3197
  17.750   0.8132   0.22746   0.22344  -0.0693  0.0319  1.0000  -1.8570   0.0000   0.0000   0.0000   0.3206
  18.000   0.8227   0.23081   0.22681  -0.0701  0.0312  1.0000  -1.9307   0.0000   0.0000   0.0000   0.3201
  18.250   0.8316   0.23503   0.23102  -0.0712  0.0308  1.0000  -1.9736   0.0000   0.0000   0.0000   0.3202
  18.500   0.8359   0.23844   0.23442  -0.0760  0.0297  1.0000  -1.8320   0.0000   0.0000   0.0000   0.3252
  18.750   0.8439   0.24192   0.23790  -0.0782  0.0284  1.0000  -1.8354   0.0000   0.0000   0.0000   0.3267
  19.000   0.8522   0.24521   0.24120  -0.0801  0.0275  1.0000  -1.8658   0.0000   0.0000   0.0000   0.3276
  19.250   0.8609   0.24842   0.24441  -0.0816  0.0269  1.0000  -1.9242   0.0000   0.0000   0.0000   0.3280
  19.500   0.8717   0.25258   0.24861  -0.0815  0.0265  1.0000  -2.0579   0.0000   0.0000   0.0000   0.3263
  19.750   0.8775   0.25587   0.25187  -0.0850  0.0263  1.0000  -1.9768   0.0000   0.0000   0.0000   0.3293
  20.000   0.8845   0.25923   0.25522  -0.0888  0.0257  1.0000  -1.8784   0.0000   0.0000   0.0000   0.3326


