xflr5 v6.61

 Calculated polar for: NACA 0012

 1 1 Reynolds number fixed          Mach number fixed         

 xtrf =   1.000 (top)        1.000 (bottom)
 Mach =   0.000     Re =     0.200 e 6     Ncrit =   9.000

  alpha     CL        CD       CDp       Cm    Top Xtr Bot Xtr   Cpmin    Chinge    XCp    
 ------- -------- --------- --------- -------- ------- ------- -------- --------- ---------
 -10.000  -1.0117   0.02922   0.02127  -0.0159  1.0000  0.0512  -4.7575   0.0000   0.0000   0.0000   0.2233
  -9.750  -0.9919   0.02770   0.01966  -0.0149  1.0000  0.0530  -4.6147   0.0000   0.0000   0.0000   0.2243
  -9.500  -0.9713   0.02659   0.01855  -0.0140  1.0000  0.0551  -4.4544   0.0000   0.0000   0.0000   0.2251
  -9.250  -0.9515   0.02554   0.01728  -0.0128  1.0000  0.0577  -4.3134   0.0000   0.0000   0.0000   0.2264
  -9.000  -0.9306   0.02438   0.01620  -0.0120  1.0000  0.0604  -4.1497   0.0000   0.0000   0.0000   0.2273
  -8.750  -0.9103   0.02354   0.01521  -0.0108  1.0000  0.0639  -3.9984   0.0000   0.0000   0.0000   0.2286
  -8.500  -0.8898   0.02247   0.01423  -0.0098  1.0000  0.0671  -3.8414   0.0000   0.0000   0.0000   0.2297
  -8.250  -0.8692   0.02169   0.01330  -0.0086  1.0000  0.0711  -3.6926   0.0000   0.0000   0.0000   0.2311
  -8.000  -0.8496   0.02075   0.01248  -0.0074  1.0000  0.0754  -3.5434   0.0000   0.0000   0.0000   0.2325
  -7.750  -0.8300   0.01993   0.01166  -0.0061  1.0000  0.0805  -3.4087   0.0000   0.0000   0.0000   0.2342
  -7.500  -0.8105   0.01917   0.01088  -0.0047  1.0000  0.0865  -3.2757   0.0000   0.0000   0.0000   0.2360
  -7.250  -0.7911   0.01846   0.01020  -0.0032  1.0000  0.0935  -3.1416   0.0000   0.0000   0.0000   0.2379
  -7.000  -0.7722   0.01775   0.00953  -0.0017  1.0000  0.1017  -3.0088   0.0000   0.0000   0.0000   0.2400
  -6.750  -0.7535   0.01705   0.00890  -0.0002  1.0000  0.1112  -2.8773   0.0000   0.0000   0.0000   0.2422
  -6.500  -0.7345   0.01641   0.00833   0.0013  1.0000  0.1235  -2.7456   0.0000   0.0000   0.0000   0.2444
  -6.250  -0.7156   0.01576   0.00778   0.0028  1.0000  0.1384  -2.6238   0.0000   0.0000   0.0000   0.2468
  -6.000  -0.6966   0.01514   0.00727   0.0043  1.0000  0.1574  -2.5050   0.0000   0.0000   0.0000   0.2493
  -5.750  -0.6774   0.01456   0.00682   0.0057  1.0000  0.1811  -2.3861   0.0000   0.0000   0.0000   0.2518
  -5.500  -0.6580   0.01401   0.00643   0.0071  1.0000  0.2091  -2.2672   0.0000   0.0000   0.0000   0.2544
  -5.250  -0.6383   0.01352   0.00609   0.0085  1.0000  0.2411  -2.1479   0.0000   0.0000   0.0000   0.2570
  -5.000  -0.6182   0.01308   0.00580   0.0097  1.0000  0.2757  -2.0343   0.0000   0.0000   0.0000   0.2597
  -4.750  -0.5978   0.01269   0.00557   0.0110  1.0000  0.3113  -1.9248   0.0000   0.0000   0.0000   0.2625
  -4.500  -0.5770   0.01235   0.00537   0.0121  1.0000  0.3472  -1.8159   0.0000   0.0000   0.0000   0.2654
  -4.250  -0.5559   0.01204   0.00522   0.0132  1.0000  0.3824  -1.7080   0.0000   0.0000   0.0000   0.2684
  -4.000  -0.5344   0.01178   0.00508   0.0143  1.0000  0.4177  -1.6073   0.0000   0.0000   0.0000   0.2715
  -3.750  -0.5126   0.01155   0.00499   0.0153  1.0000  0.4527  -1.5093   0.0000   0.0000   0.0000   0.2748
  -3.500  -0.4903   0.01136   0.00493   0.0162  1.0000  0.4874  -1.4119   0.0000   0.0000   0.0000   0.2782
  -3.250  -0.4678   0.01119   0.00491   0.0171  1.0000  0.5217  -1.3224   0.0000   0.0000   0.0000   0.2818
  -3.000  -0.4450   0.01106   0.00490   0.0179  1.0000  0.5564  -1.2346   0.0000   0.0000   0.0000   0.2857
  -2.750  -0.4224   0.01095   0.00494   0.0187  1.0000  0.5901  -1.1527   0.0000   0.0000   0.0000   0.2900
  -2.500  -0.3963   0.01087   0.00501   0.0188  0.9990  0.6253  -1.0687   0.0000   0.0000   0.0000   0.2934
  -2.250  -0.3525   0.01078   0.00508   0.0156  0.9930  0.6651  -0.9657   0.0000   0.0000   0.0000   0.2900
  -2.000  -0.3101   0.01068   0.00511   0.0126  0.9855  0.7029  -0.8730   0.0000   0.0000   0.0000   0.2867
  -1.750  -0.2688   0.01058   0.00515   0.0101  0.9775  0.7374  -0.7898   0.0000   0.0000   0.0000   0.2836
  -1.500  -0.2277   0.01049   0.00517   0.0077  0.9694  0.7703  -0.7150   0.0000   0.0000   0.0000   0.2800
  -1.250  -0.1865   0.01042   0.00519   0.0055  0.9613  0.8006  -0.6472   0.0000   0.0000   0.0000   0.2753
  -1.000  -0.1437   0.01035   0.00520   0.0030  0.9540  0.8275  -0.5852   0.0000   0.0000   0.0000   0.2668
  -0.750  -0.1038   0.01029   0.00521   0.0013  0.9454  0.8509  -0.5322   0.0000   0.0000   0.0000   0.2585
  -0.500  -0.0679   0.01025   0.00521   0.0005  0.9340  0.8715  -0.4875   0.0000   0.0000   0.0000   0.2539
  -0.250  -0.0347   0.01022   0.00520   0.0004  0.9206  0.8911  -0.4487   0.0000   0.0000   0.0000   0.2567
   0.000  -0.0000   0.01021   0.00522   0.0000  0.9064  0.9064  -0.4120   0.0000   0.0000   0.0000   0.6521
   0.250   0.0347   0.01022   0.00520  -0.0004  0.8911  0.9206  -0.4487   0.0000   0.0000   0.0000   0.2567
   0.500   0.0679   0.01025   0.00521  -0.0005  0.8715  0.9340  -0.4875   0.0000   0.0000   0.0000   0.2539
   0.750   0.1038   0.01029   0.00521  -0.0013  0.8509  0.9454  -0.5322   0.0000   0.0000   0.0000   0.2585
   1.000   0.1437   0.01035   0.00520  -0.0030  0.8275  0.9541  -0.5852   0.0000   0.0000   0.0000   0.2668
   1.500   0.2277   0.01049   0.00517  -0.0077  0.7703  0.9694  -0.7150   0.0000   0.0000   0.0000   0.2800
   1.750   0.2688   0.01058   0.00515  -0.0101  0.7374  0.9775  -0.7898   0.0000   0.0000   0.0000   0.2836
   2.000   0.3101   0.01068   0.00510  -0.0126  0.7029  0.9855  -0.8730   0.0000   0.0000   0.0000   0.2867
   2.250   0.3525   0.01078   0.00508  -0.0156  0.6650  0.9930  -0.9657   0.0000   0.0000   0.0000   0.2900
   2.500   0.3963   0.01087   0.00500  -0.0188  0.6253  0.9990  -1.0687   0.0000   0.0000   0.0000   0.2934
   2.750   0.4223   0.01095   0.00494  -0.0187  0.5901  1.0000  -1.1526   0.0000   0.0000   0.0000   0.2899
   3.000   0.4450   0.01106   0.00490  -0.0179  0.5564  1.0000  -1.2345   0.0000   0.0000   0.0000   0.2857
   3.250   0.4677   0.01119   0.00490  -0.0171  0.5218  1.0000  -1.3223   0.0000   0.0000   0.0000   0.2818
   3.500   0.4902   0.01136   0.00493  -0.0162  0.4874  1.0000  -1.4118   0.0000   0.0000   0.0000   0.2782
   3.750   0.5126   0.01155   0.00499  -0.0153  0.4527  1.0000  -1.5092   0.0000   0.0000   0.0000   0.2748
   4.000   0.5343   0.01178   0.00508  -0.0143  0.4177  1.0000  -1.6072   0.0000   0.0000   0.0000   0.2715
   4.250   0.5558   0.01204   0.00521  -0.0132  0.3825  1.0000  -1.7078   0.0000   0.0000   0.0000   0.2684
   4.500   0.5769   0.01235   0.00537  -0.0121  0.3472  1.0000  -1.8158   0.0000   0.0000   0.0000   0.2654
   4.750   0.5977   0.01269   0.00557  -0.0109  0.3113  1.0000  -1.9247   0.0000   0.0000   0.0000   0.2625
   5.000   0.6182   0.01307   0.00580  -0.0097  0.2757  1.0000  -2.0341   0.0000   0.0000   0.0000   0.2597
   5.250   0.6383   0.01352   0.00609  -0.0084  0.2412  1.0000  -2.1478   0.0000   0.0000   0.0000   0.2570
   5.500   0.6580   0.01401   0.00643  -0.0071  0.2092  1.0000  -2.2670   0.0000   0.0000   0.0000   0.2543
   5.750   0.6773   0.01456   0.00682  -0.0057  0.1811  1.0000  -2.3859   0.0000   0.0000   0.0000   0.2518
   6.000   0.6965   0.01514   0.00727  -0.0043  0.1574  1.0000  -2.5049   0.0000   0.0000   0.0000   0.2492
   6.250   0.7156   0.01576   0.00778  -0.0028  0.1384  1.0000  -2.6237   0.0000   0.0000   0.0000   0.2468
   6.500   0.7344   0.01641   0.00833  -0.0013  0.1235  1.0000  -2.7455   0.0000   0.0000   0.0000   0.2444
   6.750   0.7535   0.01705   0.00890   0.0002  0.1112  1.0000  -2.8772   0.0000   0.0000   0.0000   0.2422
   7.000   0.7722   0.01775   0.00953   0.0017  0.1017  1.0000  -3.0087   0.0000   0.0000   0.0000   0.2399
   7.250   0.7911   0.01846   0.01019   0.0032  0.0935  1.0000  -3.1415   0.0000   0.0000   0.0000   0.2379
   7.500   0.8105   0.01916   0.01088   0.0047  0.0865  1.0000  -3.2757   0.0000   0.0000   0.0000   0.2360
   7.750   0.8300   0.01993   0.01166   0.0061  0.0805  1.0000  -3.4087   0.0000   0.0000   0.0000   0.2342
   8.000   0.8496   0.02075   0.01248   0.0074  0.0754  1.0000  -3.5434   0.0000   0.0000   0.0000   0.2325
   8.250   0.8692   0.02169   0.01330   0.0085  0.0711  1.0000  -3.6927   0.0000   0.0000   0.0000   0.2311
   8.500   0.8899   0.02247   0.01422   0.0098  0.0671  1.0000  -3.8415   0.0000   0.0000   0.0000   0.2297
   8.750   0.9104   0.02354   0.01521   0.0108  0.0639  1.0000  -3.9985   0.0000   0.0000   0.0000   0.2286
   9.000   0.9307   0.02438   0.01620   0.0120  0.0604  1.0000  -4.1499   0.0000   0.0000   0.0000   0.2273
   9.250   0.9516   0.02554   0.01728   0.0128  0.0577  1.0000  -4.3136   0.0000   0.0000   0.0000   0.2264
   9.500   0.9713   0.02659   0.01855   0.0140  0.0551  1.0000  -4.4547   0.0000   0.0000   0.0000   0.2252
   9.750   0.9920   0.02770   0.01966   0.0149  0.0530  1.0000  -4.6150   0.0000   0.0000   0.0000   0.2243
  10.000   1.0118   0.02922   0.02127   0.0158  0.0512  1.0000  -4.7578   0.0000   0.0000   0.0000   0.2234
  10.250   1.0290   0.03049   0.02279   0.0172  0.0491  1.0000  -4.8886   0.0000   0.0000   0.0000   0.2220
  10.500   1.0479   0.03160   0.02392   0.0182  0.0473  1.0000  -5.0636   0.0000   0.0000   0.0000   0.2211
  10.750   1.0656   0.03340   0.02581   0.0191  0.0458  1.0000  -5.2215   0.0000   0.0000   0.0000   0.2202
  11.000   1.0763   0.03530   0.02810   0.0211  0.0446  1.0000  -5.3224   0.0000   0.0000   0.0000   0.2182
  11.250   1.0871   0.03728   0.03035   0.0229  0.0435  1.0000  -5.4314   0.0000   0.0000   0.0000   0.2165
  11.500   1.0989   0.03913   0.03238   0.0244  0.0425  1.0000  -5.5580   0.0000   0.0000   0.0000   0.2150
  11.750   1.1132   0.04079   0.03408   0.0255  0.0416  1.0000  -5.7148   0.0000   0.0000   0.0000   0.2140
  12.000   1.1237   0.04339   0.03676   0.0266  0.0407  1.0000  -5.8391   0.0000   0.0000   0.0000   0.2129
  12.250   1.1136   0.04600   0.03982   0.0299  0.0402  1.0000  -5.8333   0.0000   0.0000   0.0000   0.2093
  12.500   1.0977   0.04872   0.04290   0.0335  0.0398  1.0000  -5.8079   0.0000   0.0000   0.0000   0.2053
  12.750   1.0795   0.05194   0.04642   0.0360  0.0395  1.0000  -5.7674   0.0000   0.0000   0.0000   0.2021
  13.000   1.0590   0.05582   0.05059   0.0370  0.0393  1.0000  -5.7077   0.0000   0.0000   0.0000   0.2000
  13.250   1.0358   0.06057   0.05561   0.0364  0.0393  1.0000  -5.6225   0.0000   0.0000   0.0000   0.1993
  13.500   1.0094   0.06645   0.06174   0.0340  0.0394  1.0000  -5.5054   0.0000   0.0000   0.0000   0.2002
  13.750   0.9803   0.07366   0.06919   0.0297  0.0396  1.0000  -5.3534   0.0000   0.0000   0.0000   0.2030
  14.000   0.9496   0.08218   0.07789   0.0240  0.0400  1.0000  -5.1706   0.0000   0.0000   0.0000   0.2075
  14.250   0.9194   0.09157   0.08743   0.0177  0.0404  1.0000  -4.9683   0.0000   0.0000   0.0000   0.2131
  14.500   0.8921   0.10120   0.09714   0.0117  0.0407  1.0000  -4.7630   0.0000   0.0000   0.0000   0.2188
  15.250   0.6942   0.17698   0.17299  -0.0310  0.0624  1.0000  -1.9072   0.0000   0.0000   0.0000   0.2788
  15.500   0.6997   0.18064   0.17666  -0.0328  0.0602  1.0000  -1.9030   0.0000   0.0000   0.0000   0.2807
  15.750   0.7102   0.18348   0.17951  -0.0333  0.0590  1.0000  -1.9604   0.0000   0.0000   0.0000   0.2803
  16.000   0.7283   0.18604   0.18210  -0.0317  0.0583  1.0000  -2.1149   0.0000   0.0000   0.0000   0.2766
  16.250   0.7152   0.19250   0.18850  -0.0387  0.0565  1.0000  -1.8736   0.0000   0.0000   0.0000   0.2869
  16.500   0.7209   0.19621   0.19221  -0.0408  0.0544  1.0000  -1.8691   0.0000   0.0000   0.0000   0.2891
  16.750   0.7308   0.19903   0.19505  -0.0416  0.0530  1.0000  -1.9314   0.0000   0.0000   0.0000   0.2891
  17.000   0.7510   0.20163   0.19768  -0.0395  0.0521  1.0000  -2.1234   0.0000   0.0000   0.0000   0.2843
  17.250   0.7398   0.20732   0.20332  -0.0467  0.0500  1.0000  -1.8643   0.0000   0.0000   0.0000   0.2947
  17.500   0.7471   0.21073   0.20673  -0.0486  0.0482  1.0000  -1.8727   0.0000   0.0000   0.0000   0.2963
  17.750   0.7566   0.21366   0.20966  -0.0497  0.0472  1.0000  -1.9235   0.0000   0.0000   0.0000   0.2965
  18.000   0.7699   0.21657   0.21260  -0.0495  0.0465  1.0000  -2.0318   0.0000   0.0000   0.0000   0.2947
  18.250   0.7745   0.22094   0.21695  -0.0522  0.0460  1.0000  -1.9835   0.0000   0.0000   0.0000   0.2974
  18.500   0.7751   0.22539   0.22138  -0.0571  0.0440  1.0000  -1.8371   0.0000   0.0000   0.0000   0.3034
  18.750   0.7831   0.22868   0.22468  -0.0590  0.0426  1.0000  -1.8453   0.0000   0.0000   0.0000   0.3047
  19.000   0.7923   0.23163   0.22765  -0.0604  0.0417  1.0000  -1.8844   0.0000   0.0000   0.0000   0.3052
  19.250   0.8036   0.23462   0.23065  -0.0608  0.0411  1.0000  -1.9659   0.0000   0.0000   0.0000   0.3042
  19.500   0.8148   0.23876   0.23479  -0.0613  0.0407  1.0000  -2.0377   0.0000   0.0000   0.0000   0.3034
  19.750   0.8134   0.24283   0.23884  -0.0677  0.0390  1.0000  -1.8350   0.0000   0.0000   0.0000   0.3111
  20.000   0.8216   0.24601   0.24202  -0.0698  0.0375  1.0000  -1.8540   0.0000   0.0000   0.0000   0.3123


