xflr5 v6.61

 Calculated polar for: NACA 0009

 1 1 Reynolds number fixed          Mach number fixed         

 xtrf =   1.000 (top)        1.000 (bottom)
 Mach =   0.000     Re =     0.820 e 6     Ncrit =   9.000

  alpha     CL        CD       CDp       Cm    Top Xtr Bot Xtr   Cpmin    Chinge    XCp    
 ------- -------- --------- --------- -------- ------- ------- -------- --------- ---------
 -10.000  -1.0472   0.02091   0.01566  -0.0085  1.0000  0.0118  -7.8471   0.0000   0.0000   0.0000   0.2327
  -9.750  -1.0299   0.01931   0.01390  -0.0073  1.0000  0.0123  -7.6100   0.0000   0.0000   0.0000   0.2340
  -9.500  -1.0084   0.01846   0.01300  -0.0066  1.0000  0.0128  -7.2955   0.0000   0.0000   0.0000   0.2348
  -9.250  -0.9854   0.01781   0.01229  -0.0061  1.0000  0.0133  -6.9749   0.0000   0.0000   0.0000   0.2355
  -9.000  -0.9623   0.01712   0.01152  -0.0055  1.0000  0.0139  -6.6703   0.0000   0.0000   0.0000   0.2363
  -8.750  -0.9389   0.01646   0.01077  -0.0049  1.0000  0.0145  -6.3714   0.0000   0.0000   0.0000   0.2371
  -8.500  -0.9147   0.01592   0.01014  -0.0043  1.0000  0.0149  -6.0688   0.0000   0.0000   0.0000   0.2378
  -8.250  -0.8936   0.01484   0.00899  -0.0034  1.0000  0.0157  -5.8096   0.0000   0.0000   0.0000   0.2390
  -8.000  -0.8695   0.01430   0.00842  -0.0029  1.0000  0.0165  -5.5073   0.0000   0.0000   0.0000   0.2397
  -7.750  -0.8448   0.01383   0.00790  -0.0025  1.0000  0.0175  -5.2230   0.0000   0.0000   0.0000   0.2404
  -7.500  -0.8195   0.01347   0.00748  -0.0021  1.0000  0.0184  -4.9589   0.0000   0.0000   0.0000   0.2411
  -7.250  -0.7962   0.01276   0.00674  -0.0014  1.0000  0.0197  -4.7192   0.0000   0.0000   0.0000   0.2421
  -7.000  -0.7712   0.01237   0.00632  -0.0009  1.0000  0.0211  -4.4626   0.0000   0.0000   0.0000   0.2429
  -6.750  -0.7458   0.01203   0.00593  -0.0005  1.0000  0.0223  -4.2134   0.0000   0.0000   0.0000   0.2437
  -6.500  -0.7220   0.01147   0.00536   0.0002  1.0000  0.0243  -3.9785   0.0000   0.0000   0.0000   0.2448
  -6.250  -0.6968   0.01117   0.00503   0.0007  1.0000  0.0262  -3.7356   0.0000   0.0000   0.0000   0.2458
  -6.000  -0.6725   0.01074   0.00461   0.0014  1.0000  0.0291  -3.5029   0.0000   0.0000   0.0000   0.2470
  -5.750  -0.6481   0.01040   0.00426   0.0020  1.0000  0.0323  -3.2742   0.0000   0.0000   0.0000   0.2482
  -5.500  -0.6235   0.01011   0.00396   0.0027  1.0000  0.0360  -3.0584   0.0000   0.0000   0.0000   0.2496
  -5.250  -0.5992   0.00979   0.00366   0.0033  1.0000  0.0411  -2.8618   0.0000   0.0000   0.0000   0.2511
  -5.000  -0.5751   0.00947   0.00338   0.0041  1.0000  0.0484  -2.6686   0.0000   0.0000   0.0000   0.2528
  -4.500  -0.5271   0.00887   0.00291   0.0055  1.0000  0.0725  -2.2942   0.0000   0.0000   0.0000   0.2565
  -4.250  -0.5034   0.00857   0.00270   0.0063  1.0000  0.0931  -2.1135   0.0000   0.0000   0.0000   0.2586
  -4.000  -0.4798   0.00824   0.00251   0.0070  1.0000  0.1203  -1.9504   0.0000   0.0000   0.0000   0.2609
  -3.750  -0.4561   0.00792   0.00234   0.0077  1.0000  0.1548  -1.7954   0.0000   0.0000   0.0000   0.2633
  -3.500  -0.4322   0.00760   0.00220   0.0083  1.0000  0.1959  -1.6438   0.0000   0.0000   0.0000   0.2659
  -3.250  -0.3975   0.00721   0.00203   0.0065  0.9981  0.2504  -1.4676   0.0000   0.0000   0.0000   0.2632
  -3.000  -0.3619   0.00684   0.00189   0.0046  0.9957  0.3082  -1.3090   0.0000   0.0000   0.0000   0.2596
  -2.750  -0.3257   0.00649   0.00176   0.0026  0.9932  0.3661  -1.1539   0.0000   0.0000   0.0000   0.2548
  -2.500  -0.2903   0.00616   0.00165   0.0008  0.9897  0.4223  -1.0195   0.0000   0.0000   0.0000   0.2496
  -2.250  -0.2535   0.00586   0.00155  -0.0013  0.9871  0.4776  -0.8912   0.0000   0.0000   0.0000   0.2418
  -2.000  -0.2193   0.00559   0.00146  -0.0028  0.9818  0.5294  -0.7802   0.0000   0.0000   0.0000   0.2345
  -1.750  -0.1866   0.00534   0.00139  -0.0038  0.9748  0.5786  -0.6838   0.0000   0.0000   0.0000   0.2268
  -1.500  -0.1557   0.00512   0.00133  -0.0043  0.9656  0.6251  -0.6009   0.0000   0.0000   0.0000   0.2192
  -1.250  -0.1272   0.00493   0.00128  -0.0043  0.9534  0.6685  -0.5304   0.0000   0.0000   0.0000   0.2132
  -1.000  -0.1007   0.00476   0.00124  -0.0037  0.9378  0.7089  -0.4717   0.0000   0.0000   0.0000   0.2101
  -0.750  -0.0753   0.00463   0.00121  -0.0029  0.9194  0.7470  -0.4217   0.0000   0.0000   0.0000   0.2087
  -0.500  -0.0502   0.00453   0.00118  -0.0019  0.8982  0.7828  -0.3792   0.0000   0.0000   0.0000   0.2085
  -0.250  -0.0251   0.00447   0.00117  -0.0010  0.8738  0.8159  -0.3425   0.0000   0.0000   0.0000   0.2082
   0.000   0.0000   0.00445   0.00116  -0.0000  0.8463  0.8463  -0.3106   0.0000   0.0000   0.0000   0.3560
   0.250   0.0251   0.00447   0.00117   0.0010  0.8159  0.8738  -0.3425   0.0000   0.0000   0.0000   0.2082
   0.500   0.0502   0.00453   0.00118   0.0019  0.7828  0.8982  -0.3792   0.0000   0.0000   0.0000   0.2085
   0.750   0.0753   0.00463   0.00121   0.0029  0.7470  0.9194  -0.4217   0.0000   0.0000   0.0000   0.2087
   1.000   0.1007   0.00476   0.00124   0.0037  0.7089  0.9378  -0.4717   0.0000   0.0000   0.0000   0.2101
   1.250   0.1272   0.00493   0.00128   0.0043  0.6685  0.9534  -0.5304   0.0000   0.0000   0.0000   0.2132
   1.500   0.1557   0.00512   0.00133   0.0043  0.6251  0.9656  -0.6009   0.0000   0.0000   0.0000   0.2192
   1.750   0.1866   0.00534   0.00139   0.0038  0.5786  0.9748  -0.6838   0.0000   0.0000   0.0000   0.2268
   2.000   0.2193   0.00559   0.00146   0.0028  0.5294  0.9818  -0.7802   0.0000   0.0000   0.0000   0.2345
   2.250   0.2535   0.00586   0.00155   0.0013  0.4777  0.9871  -0.8912   0.0000   0.0000   0.0000   0.2418
   2.500   0.2903   0.00616   0.00165  -0.0008  0.4223  0.9897  -1.0195   0.0000   0.0000   0.0000   0.2496
   2.750   0.3257   0.00649   0.00176  -0.0026  0.3661  0.9932  -1.1540   0.0000   0.0000   0.0000   0.2548
   3.000   0.3619   0.00684   0.00189  -0.0046  0.3082  0.9957  -1.3090   0.0000   0.0000   0.0000   0.2596
   3.250   0.3975   0.00721   0.00203  -0.0066  0.2504  0.9981  -1.4676   0.0000   0.0000   0.0000   0.2632
   3.500   0.4322   0.00760   0.00220  -0.0083  0.1959  1.0000  -1.6436   0.0000   0.0000   0.0000   0.2658
   3.750   0.4560   0.00792   0.00234  -0.0077  0.1548  1.0000  -1.7953   0.0000   0.0000   0.0000   0.2633
   4.000   0.4797   0.00824   0.00250  -0.0070  0.1203  1.0000  -1.9503   0.0000   0.0000   0.0000   0.2609
   4.500   0.5271   0.00887   0.00291  -0.0055  0.0725  1.0000  -2.2940   0.0000   0.0000   0.0000   0.2565
   4.750   0.5509   0.00918   0.00313  -0.0048  0.0583  1.0000  -2.4789   0.0000   0.0000   0.0000   0.2545
   5.000   0.5751   0.00947   0.00338  -0.0041  0.0484  1.0000  -2.6685   0.0000   0.0000   0.0000   0.2527
   5.250   0.5992   0.00979   0.00366  -0.0033  0.0411  1.0000  -2.8617   0.0000   0.0000   0.0000   0.2511
   5.500   0.6235   0.01011   0.00396  -0.0027  0.0360  1.0000  -3.0583   0.0000   0.0000   0.0000   0.2496
   5.750   0.6480   0.01040   0.00426  -0.0020  0.0323  1.0000  -3.2740   0.0000   0.0000   0.0000   0.2482
   6.000   0.6725   0.01074   0.00461  -0.0013  0.0291  1.0000  -3.5028   0.0000   0.0000   0.0000   0.2469
   6.250   0.6968   0.01117   0.00503  -0.0007  0.0262  1.0000  -3.7355   0.0000   0.0000   0.0000   0.2457
   6.500   0.7220   0.01147   0.00536  -0.0002  0.0243  1.0000  -3.9784   0.0000   0.0000   0.0000   0.2448
   6.750   0.7458   0.01203   0.00593   0.0005  0.0223  1.0000  -4.2133   0.0000   0.0000   0.0000   0.2437
   7.000   0.7712   0.01237   0.00632   0.0009  0.0211  1.0000  -4.4626   0.0000   0.0000   0.0000   0.2429
   7.250   0.7962   0.01276   0.00674   0.0014  0.0197  1.0000  -4.7193   0.0000   0.0000   0.0000   0.2421
   7.500   0.8195   0.01347   0.00748   0.0021  0.0184  1.0000  -4.9590   0.0000   0.0000   0.0000   0.2411
   7.750   0.8448   0.01383   0.00790   0.0025  0.0175  1.0000  -5.2231   0.0000   0.0000   0.0000   0.2404
   8.000   0.8695   0.01430   0.00842   0.0029  0.0165  1.0000  -5.5074   0.0000   0.0000   0.0000   0.2397
   8.250   0.8937   0.01484   0.00899   0.0034  0.0157  1.0000  -5.8097   0.0000   0.0000   0.0000   0.2390
   8.500   0.9147   0.01592   0.01014   0.0043  0.0149  1.0000  -6.0690   0.0000   0.0000   0.0000   0.2378
   8.750   0.9390   0.01646   0.01077   0.0049  0.0145  1.0000  -6.3716   0.0000   0.0000   0.0000   0.2371
   9.000   0.9624   0.01712   0.01152   0.0055  0.0139  1.0000  -6.6705   0.0000   0.0000   0.0000   0.2363
   9.250   0.9854   0.01781   0.01229   0.0061  0.0133  1.0000  -6.9752   0.0000   0.0000   0.0000   0.2355
   9.500   1.0084   0.01846   0.01300   0.0066  0.0128  1.0000  -7.2959   0.0000   0.0000   0.0000   0.2348
   9.750   1.0300   0.01931   0.01390   0.0073  0.0123  1.0000  -7.6103   0.0000   0.0000   0.0000   0.2340
  10.000   1.0473   0.02091   0.01566   0.0085  0.0118  1.0000  -7.8477   0.0000   0.0000   0.0000   0.2327
  10.250   1.0692   0.02166   0.01654   0.0092  0.0115  1.0000  -8.1586   0.0000   0.0000   0.0000   0.2319
  10.500   1.0893   0.02267   0.01769   0.0100  0.0112  1.0000  -8.4479   0.0000   0.0000   0.0000   0.2309
  10.750   1.1083   0.02377   0.01894   0.0110  0.0108  1.0000  -8.7314   0.0000   0.0000   0.0000   0.2299
  11.000   1.1263   0.02494   0.02025   0.0120  0.0105  1.0000  -9.0132   0.0000   0.0000   0.0000   0.2289
  11.250   1.1434   0.02611   0.02155   0.0130  0.0102  1.0000  -9.2990   0.0000   0.0000   0.0000   0.2278
  11.500   1.1596   0.02729   0.02286   0.0140  0.0100  1.0000  -9.5875   0.0000   0.0000   0.0000   0.2267
  11.750   1.1741   0.02858   0.02426   0.0152  0.0098  1.0000  -9.8681   0.0000   0.0000   0.0000   0.2255
  12.000   1.1851   0.03017   0.02598   0.0166  0.0096  1.0000  -10.1120   0.0000   0.0000   0.0000   0.2241
  12.250   1.1886   0.03245   0.02845   0.0185  0.0094  1.0000  -10.2621   0.0000   0.0000   0.0000   0.2222
  12.500   1.1784   0.03549   0.03175   0.0216  0.0093  1.0000  -10.2652   0.0000   0.0000   0.0000   0.2191
  12.750   1.1597   0.03924   0.03576   0.0241  0.0092  1.0000  -10.1980   0.0000   0.0000   0.0000   0.2163
  13.000   1.1399   0.04380   0.04058   0.0241  0.0091  1.0000  -10.1042   0.0000   0.0000   0.0000   0.2155
  13.250   1.1286   0.04828   0.04526   0.0220  0.0091  1.0000  -10.1015   0.0000   0.0000   0.0000   0.2166
  13.500   1.1128   0.05447   0.05166   0.0176  0.0091  1.0000  -10.0113   0.0000   0.0000   0.0000   0.2198
  13.750   1.0907   0.06296   0.06035   0.0109  0.0091  1.0000  -9.7943   0.0000   0.0000   0.0000   0.2252
  16.000   0.7785   0.19412   0.19224  -0.0555  0.0122  1.0000  -2.5744   0.0000   0.0000   0.0000   0.3080
  16.250   0.7862   0.19684   0.19497  -0.0565  0.0120  1.0000  -2.6898   0.0000   0.0000   0.0000   0.3082
  18.750   0.8522   0.23706   0.23518  -0.0778  0.0091  1.0000  -2.4399   0.0000   0.0000   0.0000   0.3246
  19.000   0.8594   0.24131   0.23943  -0.0804  0.0091  1.0000  -2.3806   0.0000   0.0000   0.0000   0.3266
  19.250   0.8662   0.24598   0.24410  -0.0836  0.0090  1.0000  -2.2629   0.0000   0.0000   0.0000   0.3293
  19.500   0.8744   0.25132   0.24944  -0.0870  0.0084  1.0000  -2.0780   0.0000   0.0000   0.0000   0.3321
  19.750   0.8825   0.25488   0.25299  -0.0892  0.0079  1.0000  -2.0817   0.0000   0.0000   0.0000   0.3333
  20.000   0.8907   0.25824   0.25635  -0.0914  0.0077  1.0000  -2.0990   0.0000   0.0000   0.0000   0.3345


