xflr5 v6.61

 Calculated polar for: NACA 0009

 1 1 Reynolds number fixed          Mach number fixed         

 xtrf =   1.000 (top)        1.000 (bottom)
 Mach =   0.000     Re =     0.880 e 6     Ncrit =   9.000

  alpha     CL        CD       CDp       Cm    Top Xtr Bot Xtr   Cpmin    Chinge    XCp    
 ------- -------- --------- --------- -------- ------- ------- -------- --------- ---------
 -10.000  -1.0528   0.01990   0.01469  -0.0078  1.0000  0.0115  -7.9427   0.0000   0.0000   0.0000   0.2333
  -9.750  -1.0295   0.01933   0.01402  -0.0073  1.0000  0.0118  -7.6123   0.0000   0.0000   0.0000   0.2340
  -9.500  -1.0116   0.01783   0.01239  -0.0061  1.0000  0.0124  -7.3664   0.0000   0.0000   0.0000   0.2353
  -9.250  -0.9891   0.01710   0.01160  -0.0055  1.0000  0.0129  -7.0480   0.0000   0.0000   0.0000   0.2361
  -9.000  -0.9656   0.01648   0.01093  -0.0050  1.0000  0.0134  -6.7298   0.0000   0.0000   0.0000   0.2368
  -8.750  -0.9419   0.01587   0.01026  -0.0044  1.0000  0.0140  -6.4210   0.0000   0.0000   0.0000   0.2376
  -8.500  -0.9179   0.01531   0.00961  -0.0039  1.0000  0.0146  -6.1169   0.0000   0.0000   0.0000   0.2383
  -8.250  -0.8935   0.01479   0.00901  -0.0034  1.0000  0.0151  -5.8159   0.0000   0.0000   0.0000   0.2390
  -8.000  -0.8715   0.01387   0.00804  -0.0026  1.0000  0.0161  -5.5445   0.0000   0.0000   0.0000   0.2401
  -7.750  -0.8467   0.01342   0.00756  -0.0022  1.0000  0.0169  -5.2555   0.0000   0.0000   0.0000   0.2408
  -7.500  -0.8216   0.01303   0.00712  -0.0017  1.0000  0.0179  -4.9901   0.0000   0.0000   0.0000   0.2415
  -7.250  -0.7973   0.01248   0.00652  -0.0012  1.0000  0.0191  -4.7420   0.0000   0.0000   0.0000   0.2424
  -7.000  -0.7725   0.01204   0.00608  -0.0007  1.0000  0.0205  -4.4842   0.0000   0.0000   0.0000   0.2432
  -6.750  -0.7473   0.01170   0.00569  -0.0002  1.0000  0.0219  -4.2323   0.0000   0.0000   0.0000   0.2440
  -6.500  -0.7230   0.01121   0.00518   0.0004  1.0000  0.0236  -3.9946   0.0000   0.0000   0.0000   0.2451
  -6.250  -0.6979   0.01089   0.00485   0.0009  1.0000  0.0256  -3.7499   0.0000   0.0000   0.0000   0.2460
  -6.000  -0.6735   0.01051   0.00446   0.0015  1.0000  0.0282  -3.5154   0.0000   0.0000   0.0000   0.2472
  -5.750  -0.6487   0.01024   0.00417   0.0021  1.0000  0.0312  -3.2818   0.0000   0.0000   0.0000   0.2485
  -5.500  -0.6243   0.00991   0.00386   0.0028  1.0000  0.0351  -3.0659   0.0000   0.0000   0.0000   0.2499
  -5.250  -0.6000   0.00960   0.00357   0.0035  1.0000  0.0401  -2.8685   0.0000   0.0000   0.0000   0.2514
  -5.000  -0.5758   0.00932   0.00330   0.0042  1.0000  0.0468  -2.6743   0.0000   0.0000   0.0000   0.2530
  -4.750  -0.5518   0.00902   0.00306   0.0050  1.0000  0.0565  -2.4843   0.0000   0.0000   0.0000   0.2549
  -4.500  -0.5279   0.00873   0.00285   0.0057  1.0000  0.0698  -2.2987   0.0000   0.0000   0.0000   0.2568
  -4.250  -0.5041   0.00844   0.00265   0.0065  1.0000  0.0889  -2.1177   0.0000   0.0000   0.0000   0.2590
  -4.000  -0.4805   0.00813   0.00246   0.0072  1.0000  0.1147  -1.9537   0.0000   0.0000   0.0000   0.2613
  -3.750  -0.4567   0.00783   0.00230   0.0079  1.0000  0.1465  -1.7984   0.0000   0.0000   0.0000   0.2637
  -3.500  -0.4266   0.00747   0.00213   0.0071  0.9989  0.1906  -1.6283   0.0000   0.0000   0.0000   0.2633
  -3.250  -0.3911   0.00708   0.00197   0.0052  0.9969  0.2439  -1.4518   0.0000   0.0000   0.0000   0.2601
  -3.000  -0.3557   0.00671   0.00182   0.0033  0.9943  0.2999  -1.2943   0.0000   0.0000   0.0000   0.2562
  -2.750  -0.3202   0.00637   0.00170   0.0015  0.9917  0.3566  -1.1422   0.0000   0.0000   0.0000   0.2515
  -2.500  -0.2845   0.00605   0.00158  -0.0004  0.9885  0.4120  -1.0076   0.0000   0.0000   0.0000   0.2455
  -2.250  -0.2493   0.00576   0.00148  -0.0021  0.9847  0.4655  -0.8837   0.0000   0.0000   0.0000   0.2385
  -2.000  -0.2152   0.00549   0.00140  -0.0035  0.9796  0.5165  -0.7737   0.0000   0.0000   0.0000   0.2307
  -1.750  -0.1838   0.00525   0.00132  -0.0043  0.9715  0.5646  -0.6797   0.0000   0.0000   0.0000   0.2238
  -1.500  -0.1547   0.00504   0.00127  -0.0044  0.9604  0.6100  -0.5994   0.0000   0.0000   0.0000   0.2184
  -1.250  -0.1272   0.00485   0.00122  -0.0041  0.9469  0.6529  -0.5303   0.0000   0.0000   0.0000   0.2145
  -1.000  -0.1013   0.00469   0.00118  -0.0035  0.9300  0.6934  -0.4722   0.0000   0.0000   0.0000   0.2130
  -0.750  -0.0759   0.00457   0.00114  -0.0026  0.9106  0.7320  -0.4223   0.0000   0.0000   0.0000   0.2126
  -0.500  -0.0507   0.00447   0.00111  -0.0017  0.8881  0.7684  -0.3796   0.0000   0.0000   0.0000   0.2130
  -0.250  -0.0254   0.00442   0.00110  -0.0009  0.8624  0.8024  -0.3427   0.0000   0.0000   0.0000   0.2129
   0.000   0.0000   0.00440   0.00109  -0.0000  0.8338  0.8338  -0.3106   0.0000   0.0000   0.0000   0.4574
   0.250   0.0254   0.00442   0.00110   0.0009  0.8024  0.8624  -0.3427   0.0000   0.0000   0.0000   0.2129
   0.500   0.0507   0.00447   0.00111   0.0017  0.7684  0.8881  -0.3796   0.0000   0.0000   0.0000   0.2130
   0.750   0.0759   0.00457   0.00114   0.0026  0.7320  0.9106  -0.4223   0.0000   0.0000   0.0000   0.2126
   1.000   0.1013   0.00469   0.00118   0.0035  0.6934  0.9300  -0.4722   0.0000   0.0000   0.0000   0.2130
   1.250   0.1272   0.00485   0.00122   0.0041  0.6529  0.9469  -0.5303   0.0000   0.0000   0.0000   0.2145
   1.500   0.1547   0.00504   0.00127   0.0044  0.6100  0.9604  -0.5994   0.0000   0.0000   0.0000   0.2184
   1.750   0.1838   0.00525   0.00132   0.0043  0.5647  0.9715  -0.6796   0.0000   0.0000   0.0000   0.2238
   2.000   0.2152   0.00549   0.00140   0.0035  0.5165  0.9796  -0.7737   0.0000   0.0000   0.0000   0.2307
   2.250   0.2493   0.00576   0.00148   0.0021  0.4655  0.9847  -0.8837   0.0000   0.0000   0.0000   0.2385
   2.500   0.2845   0.00605   0.00158   0.0004  0.4120  0.9885  -1.0076   0.0000   0.0000   0.0000   0.2455
   2.750   0.3202   0.00637   0.00170  -0.0015  0.3566  0.9917  -1.1422   0.0000   0.0000   0.0000   0.2515
   3.000   0.3557   0.00671   0.00182  -0.0033  0.2999  0.9944  -1.2943   0.0000   0.0000   0.0000   0.2562
   3.250   0.3911   0.00708   0.00197  -0.0052  0.2439  0.9969  -1.4518   0.0000   0.0000   0.0000   0.2601
   3.500   0.4266   0.00747   0.00213  -0.0071  0.1906  0.9990  -1.6284   0.0000   0.0000   0.0000   0.2634
   3.750   0.4567   0.00783   0.00230  -0.0079  0.1466  1.0000  -1.7983   0.0000   0.0000   0.0000   0.2637
   4.000   0.4804   0.00813   0.00246  -0.0072  0.1147  1.0000  -1.9535   0.0000   0.0000   0.0000   0.2613
   4.250   0.5041   0.00844   0.00265  -0.0064  0.0889  1.0000  -2.1175   0.0000   0.0000   0.0000   0.2590
   4.500   0.5278   0.00873   0.00285  -0.0057  0.0698  1.0000  -2.2986   0.0000   0.0000   0.0000   0.2568
   4.750   0.5517   0.00902   0.00306  -0.0050  0.0565  1.0000  -2.4842   0.0000   0.0000   0.0000   0.2548
   5.000   0.5757   0.00932   0.00330  -0.0042  0.0468  1.0000  -2.6742   0.0000   0.0000   0.0000   0.2530
   5.250   0.6000   0.00960   0.00357  -0.0035  0.0401  1.0000  -2.8684   0.0000   0.0000   0.0000   0.2514
   5.500   0.6243   0.00991   0.00386  -0.0028  0.0351  1.0000  -3.0658   0.0000   0.0000   0.0000   0.2499
   5.750   0.6486   0.01024   0.00417  -0.0021  0.0312  1.0000  -3.2817   0.0000   0.0000   0.0000   0.2484
   6.000   0.6734   0.01051   0.00446  -0.0015  0.0282  1.0000  -3.5153   0.0000   0.0000   0.0000   0.2472
   6.250   0.6979   0.01089   0.00485  -0.0009  0.0256  1.0000  -3.7498   0.0000   0.0000   0.0000   0.2460
   6.500   0.7229   0.01121   0.00518  -0.0004  0.0236  1.0000  -3.9945   0.0000   0.0000   0.0000   0.2451
   6.750   0.7473   0.01170   0.00569   0.0002  0.0219  1.0000  -4.2323   0.0000   0.0000   0.0000   0.2440
   7.000   0.7725   0.01204   0.00608   0.0007  0.0205  1.0000  -4.4842   0.0000   0.0000   0.0000   0.2432
   7.250   0.7973   0.01248   0.00652   0.0012  0.0191  1.0000  -4.7420   0.0000   0.0000   0.0000   0.2424
   7.500   0.8216   0.01303   0.00712   0.0017  0.0179  1.0000  -4.9901   0.0000   0.0000   0.0000   0.2415
   7.750   0.8467   0.01342   0.00756   0.0022  0.0169  1.0000  -5.2556   0.0000   0.0000   0.0000   0.2408
   8.000   0.8715   0.01387   0.00804   0.0026  0.0161  1.0000  -5.5446   0.0000   0.0000   0.0000   0.2401
   8.250   0.8935   0.01479   0.00901   0.0034  0.0151  1.0000  -5.8160   0.0000   0.0000   0.0000   0.2390
   8.500   0.9179   0.01531   0.00961   0.0039  0.0146  1.0000  -6.1171   0.0000   0.0000   0.0000   0.2383
   8.750   0.9420   0.01587   0.01026   0.0044  0.0140  1.0000  -6.4212   0.0000   0.0000   0.0000   0.2376
   9.000   0.9657   0.01648   0.01093   0.0050  0.0134  1.0000  -6.7301   0.0000   0.0000   0.0000   0.2368
   9.250   0.9891   0.01710   0.01160   0.0055  0.0129  1.0000  -7.0483   0.0000   0.0000   0.0000   0.2361
   9.500   1.0116   0.01783   0.01239   0.0061  0.0124  1.0000  -7.3668   0.0000   0.0000   0.0000   0.2353
   9.750   1.0296   0.01933   0.01402   0.0073  0.0118  1.0000  -7.6127   0.0000   0.0000   0.0000   0.2340
  10.000   1.0529   0.01990   0.01469   0.0078  0.0115  1.0000  -7.9432   0.0000   0.0000   0.0000   0.2334
  10.250   1.0745   0.02071   0.01562   0.0085  0.0112  1.0000  -8.2530   0.0000   0.0000   0.0000   0.2325
  10.500   1.0951   0.02164   0.01666   0.0093  0.0108  1.0000  -8.5568   0.0000   0.0000   0.0000   0.2316
  10.750   1.1152   0.02258   0.01773   0.0102  0.0104  1.0000  -8.8640   0.0000   0.0000   0.0000   0.2307
  11.000   1.1346   0.02353   0.01878   0.0110  0.0101  1.0000  -9.1783   0.0000   0.0000   0.0000   0.2298
  11.250   1.1533   0.02452   0.01986   0.0119  0.0099  1.0000  -9.4949   0.0000   0.0000   0.0000   0.2288
  11.500   1.1697   0.02571   0.02116   0.0129  0.0096  1.0000  -9.7921   0.0000   0.0000   0.0000   0.2277
  11.750   1.1801   0.02764   0.02325   0.0145  0.0094  1.0000  -10.0040   0.0000   0.0000   0.0000   0.2262
  12.000   1.1754   0.03133   0.02729   0.0172  0.0091  1.0000  -9.9967   0.0000   0.0000   0.0000   0.2235
  12.250   1.1847   0.03285   0.02899   0.0187  0.0091  1.0000  -10.2202   0.0000   0.0000   0.0000   0.2220
  12.500   1.1870   0.03460   0.03092   0.0209  0.0090  1.0000  -10.3817   0.0000   0.0000   0.0000   0.2198
  12.750   1.1837   0.03673   0.03323   0.0231  0.0089  1.0000  -10.5116   0.0000   0.0000   0.0000   0.2175
  13.000   1.1770   0.03948   0.03617   0.0243  0.0089  1.0000  -10.5965   0.0000   0.0000   0.0000   0.2160
  13.250   1.1671   0.04311   0.04000   0.0239  0.0088  1.0000  -10.6300   0.0000   0.0000   0.0000   0.2157
  13.500   1.1539   0.04802   0.04511   0.0214  0.0088  1.0000  -10.6005   0.0000   0.0000   0.0000   0.2171
  13.750   1.1369   0.05469   0.05199   0.0165  0.0088  1.0000  -10.4872   0.0000   0.0000   0.0000   0.2206
  14.000   1.1143   0.06355   0.06107   0.0094  0.0088  1.0000  -10.2575   0.0000   0.0000   0.0000   0.2262
  14.250   1.0837   0.07478   0.07248   0.0011  0.0089  1.0000  -9.8720   0.0000   0.0000   0.0000   0.2332
  14.500   1.0411   0.08861   0.08649  -0.0078  0.0090  1.0000  -9.2664   0.0000   0.0000   0.0000   0.2415
  14.750   0.5530   0.14825   0.14658  -0.0185  0.0154  1.0000  -2.1412   0.0000   0.0000   0.0000   0.2743
  15.000   0.5565   0.15013   0.14846  -0.0190  0.0152  1.0000  -2.2255   0.0000   0.0000   0.0000   0.2748
  17.250   0.5652   0.17803   0.17638  -0.0304  0.0119  1.0000  -1.8998   0.0000   0.0000   0.0000   0.2934
  17.500   0.5669   0.18129   0.17964  -0.0319  0.0119  1.0000  -1.8281   0.0000   0.0000   0.0000   0.2957
  17.750   0.5657   0.18525   0.18360  -0.0339  0.0117  1.0000  -1.6522   0.0000   0.0000   0.0000   0.2995
  18.000   0.5657   0.18941   0.18776  -0.0359  0.0107  1.0000  -1.4545   0.0000   0.0000   0.0000   0.3032
  18.250   0.5692   0.19213   0.19049  -0.0371  0.0102  1.0000  -1.4405   0.0000   0.0000   0.0000   0.3047
  18.500   0.5732   0.19469   0.19305  -0.0383  0.0098  1.0000  -1.4475   0.0000   0.0000   0.0000   0.3060
  18.750   0.5775   0.19709   0.19546  -0.0394  0.0096  1.0000  -1.4817   0.0000   0.0000   0.0000   0.3072
  19.000   0.5822   0.19937   0.19774  -0.0404  0.0094  1.0000  -1.5440   0.0000   0.0000   0.0000   0.3080
  19.250   0.5875   0.20153   0.19990  -0.0412  0.0093  1.0000  -1.6314   0.0000   0.0000   0.0000   0.3084
  19.500   0.5916   0.20455   0.20293  -0.0420  0.0091  1.0000  -1.6621   0.0000   0.0000   0.0000   0.3090
  19.750   0.5940   0.20781   0.20619  -0.0435  0.0091  1.0000  -1.6079   0.0000   0.0000   0.0000   0.3111
  20.000   0.5957   0.21124   0.20962  -0.0451  0.0091  1.0000  -1.5286   0.0000   0.0000   0.0000   0.3135


