xflr5 v6.61

 Calculated polar for: NACA 0009

 1 1 Reynolds number fixed          Mach number fixed         

 xtrf =   1.000 (top)        1.000 (bottom)
 Mach =   0.000     Re =     0.740 e 6     Ncrit =   9.000

  alpha     CL        CD       CDp       Cm    Top Xtr Bot Xtr   Cpmin    Chinge    XCp    
 ------- -------- --------- --------- -------- ------- ------- -------- --------- ---------
 -10.000  -1.0461   0.02120   0.01585  -0.0088  1.0000  0.0125  -7.8065   0.0000   0.0000   0.0000   0.2324
  -9.750  -1.0245   0.02043   0.01503  -0.0082  1.0000  0.0130  -7.4818   0.0000   0.0000   0.0000   0.2332
  -9.500  -1.0021   0.01972   0.01424  -0.0076  1.0000  0.0135  -7.1656   0.0000   0.0000   0.0000   0.2339
  -9.250  -0.9799   0.01890   0.01332  -0.0069  1.0000  0.0140  -6.8722   0.0000   0.0000   0.0000   0.2347
  -9.000  -0.9573   0.01811   0.01242  -0.0062  1.0000  0.0145  -6.5849   0.0000   0.0000   0.0000   0.2356
  -8.750  -0.9337   0.01748   0.01167  -0.0056  1.0000  0.0150  -6.2896   0.0000   0.0000   0.0000   0.2363
  -8.500  -0.9139   0.01616   0.01027  -0.0045  1.0000  0.0157  -6.0455   0.0000   0.0000   0.0000   0.2376
  -8.250  -0.8903   0.01554   0.00962  -0.0040  1.0000  0.0165  -5.7453   0.0000   0.0000   0.0000   0.2383
  -8.000  -0.8662   0.01500   0.00902  -0.0035  1.0000  0.0173  -5.4511   0.0000   0.0000   0.0000   0.2391
  -7.750  -0.8415   0.01452   0.00846  -0.0030  1.0000  0.0182  -5.1724   0.0000   0.0000   0.0000   0.2398
  -7.500  -0.8186   0.01375   0.00765  -0.0023  1.0000  0.0194  -4.9369   0.0000   0.0000   0.0000   0.2408
  -7.250  -0.7939   0.01330   0.00719  -0.0018  1.0000  0.0206  -4.6773   0.0000   0.0000   0.0000   0.2416
  -7.000  -0.7689   0.01289   0.00672  -0.0013  1.0000  0.0219  -4.4300   0.0000   0.0000   0.0000   0.2424
  -6.750  -0.7452   0.01227   0.00606  -0.0006  1.0000  0.0235  -4.1985   0.0000   0.0000   0.0000   0.2435
  -6.500  -0.7203   0.01189   0.00566  -0.0001  1.0000  0.0253  -3.9539   0.0000   0.0000   0.0000   0.2444
  -6.250  -0.6959   0.01144   0.00519   0.0005  1.0000  0.0276  -3.7214   0.0000   0.0000   0.0000   0.2455
  -6.000  -0.6710   0.01112   0.00485   0.0011  1.0000  0.0303  -3.4839   0.0000   0.0000   0.0000   0.2465
  -5.750  -0.6469   0.01071   0.00445   0.0017  1.0000  0.0336  -3.2587   0.0000   0.0000   0.0000   0.2478
  -5.500  -0.6226   0.01036   0.00410   0.0024  1.0000  0.0377  -3.0476   0.0000   0.0000   0.0000   0.2492
  -5.250  -0.5983   0.01003   0.00379   0.0031  1.0000  0.0431  -2.8521   0.0000   0.0000   0.0000   0.2507
  -5.000  -0.5740   0.00972   0.00350   0.0038  1.0000  0.0508  -2.6596   0.0000   0.0000   0.0000   0.2523
  -4.750  -0.5500   0.00939   0.00324   0.0045  1.0000  0.0613  -2.4718   0.0000   0.0000   0.0000   0.2541
  -4.500  -0.5261   0.00908   0.00300   0.0053  1.0000  0.0770  -2.2875   0.0000   0.0000   0.0000   0.2560
  -4.250  -0.5024   0.00874   0.00278   0.0060  1.0000  0.0999  -2.1077   0.0000   0.0000   0.0000   0.2581
  -4.000  -0.4788   0.00840   0.00257   0.0067  1.0000  0.1296  -1.9458   0.0000   0.0000   0.0000   0.2604
  -3.750  -0.4552   0.00806   0.00240   0.0074  1.0000  0.1677  -1.7913   0.0000   0.0000   0.0000   0.2627
  -3.500  -0.4314   0.00772   0.00225   0.0080  1.0000  0.2117  -1.6399   0.0000   0.0000   0.0000   0.2652
  -3.250  -0.4073   0.00740   0.00212   0.0086  1.0000  0.2600  -1.4915   0.0000   0.0000   0.0000   0.2678
  -3.000  -0.3714   0.00702   0.00199   0.0066  0.9978  0.3199  -1.3319   0.0000   0.0000   0.0000   0.2646
  -2.750  -0.3353   0.00666   0.00186   0.0045  0.9950  0.3794  -1.1762   0.0000   0.0000   0.0000   0.2605
  -2.500  -0.2987   0.00634   0.00175   0.0025  0.9922  0.4379  -1.0368   0.0000   0.0000   0.0000   0.2553
  -2.250  -0.2626   0.00604   0.00166   0.0005  0.9886  0.4939  -0.9079   0.0000   0.0000   0.0000   0.2491
  -2.000  -0.2264   0.00575   0.00157  -0.0014  0.9848  0.5477  -0.7919   0.0000   0.0000   0.0000   0.2411
  -1.750  -0.1908   0.00550   0.00149  -0.0030  0.9801  0.5992  -0.6901   0.0000   0.0000   0.0000   0.2311
  -1.500  -0.1584   0.00526   0.00143  -0.0040  0.9724  0.6464  -0.6045   0.0000   0.0000   0.0000   0.2221
  -1.250  -0.1287   0.00506   0.00138  -0.0042  0.9613  0.6901  -0.5323   0.0000   0.0000   0.0000   0.2147
  -1.000  -0.1007   0.00489   0.00135  -0.0039  0.9479  0.7310  -0.4718   0.0000   0.0000   0.0000   0.2079
  -0.750  -0.0746   0.00474   0.00132  -0.0032  0.9314  0.7684  -0.4213   0.0000   0.0000   0.0000   0.2042
  -0.500  -0.0495   0.00464   0.00129  -0.0022  0.9121  0.8029  -0.3788   0.0000   0.0000   0.0000   0.2025
  -0.250  -0.0248   0.00457   0.00128  -0.0011  0.8895  0.8348  -0.3423   0.0000   0.0000   0.0000   0.2026
   0.000   0.0000   0.00455   0.00128   0.0000  0.8637  0.8637  -0.3106   0.0000   0.0000   0.0000  -0.5457
   0.250   0.0248   0.00457   0.00128   0.0011  0.8348  0.8895  -0.3423   0.0000   0.0000   0.0000   0.2026
   0.500   0.0495   0.00464   0.00129   0.0022  0.8029  0.9121  -0.3788   0.0000   0.0000   0.0000   0.2025
   0.750   0.0746   0.00474   0.00132   0.0032  0.7684  0.9314  -0.4213   0.0000   0.0000   0.0000   0.2042
   1.000   0.1007   0.00489   0.00135   0.0039  0.7310  0.9479  -0.4718   0.0000   0.0000   0.0000   0.2079
   1.250   0.1287   0.00506   0.00138   0.0042  0.6901  0.9613  -0.5323   0.0000   0.0000   0.0000   0.2147
   1.500   0.1584   0.00526   0.00143   0.0040  0.6464  0.9724  -0.6045   0.0000   0.0000   0.0000   0.2220
   1.750   0.1908   0.00550   0.00149   0.0031  0.5992  0.9801  -0.6901   0.0000   0.0000   0.0000   0.2311
   2.000   0.2264   0.00575   0.00157   0.0014  0.5477  0.9848  -0.7918   0.0000   0.0000   0.0000   0.2410
   2.250   0.2626   0.00604   0.00166  -0.0005  0.4939  0.9886  -0.9079   0.0000   0.0000   0.0000   0.2491
   2.500   0.2987   0.00634   0.00175  -0.0025  0.4380  0.9922  -1.0368   0.0000   0.0000   0.0000   0.2553
   2.750   0.3353   0.00666   0.00186  -0.0045  0.3794  0.9950  -1.1762   0.0000   0.0000   0.0000   0.2605
   3.000   0.3714   0.00702   0.00198  -0.0066  0.3199  0.9978  -1.3319   0.0000   0.0000   0.0000   0.2646
   3.250   0.4072   0.00740   0.00212  -0.0086  0.2600  1.0000  -1.4914   0.0000   0.0000   0.0000   0.2678
   3.500   0.4313   0.00772   0.00225  -0.0080  0.2117  1.0000  -1.6398   0.0000   0.0000   0.0000   0.2652
   3.750   0.4551   0.00806   0.00240  -0.0074  0.1678  1.0000  -1.7912   0.0000   0.0000   0.0000   0.2627
   4.000   0.4788   0.00840   0.00257  -0.0067  0.1296  1.0000  -1.9456   0.0000   0.0000   0.0000   0.2604
   4.250   0.5024   0.00874   0.00278  -0.0060  0.0999  1.0000  -2.1075   0.0000   0.0000   0.0000   0.2581
   4.500   0.5261   0.00908   0.00300  -0.0053  0.0770  1.0000  -2.2874   0.0000   0.0000   0.0000   0.2560
   4.750   0.5500   0.00939   0.00323  -0.0045  0.0613  1.0000  -2.4716   0.0000   0.0000   0.0000   0.2541
   5.000   0.5740   0.00972   0.00350  -0.0038  0.0508  1.0000  -2.6594   0.0000   0.0000   0.0000   0.2523
   5.250   0.5982   0.01003   0.00379  -0.0031  0.0432  1.0000  -2.8520   0.0000   0.0000   0.0000   0.2507
   5.500   0.6225   0.01036   0.00410  -0.0024  0.0377  1.0000  -3.0475   0.0000   0.0000   0.0000   0.2492
   5.750   0.6468   0.01071   0.00445  -0.0017  0.0336  1.0000  -3.2586   0.0000   0.0000   0.0000   0.2478
   6.000   0.6710   0.01112   0.00485  -0.0011  0.0303  1.0000  -3.4838   0.0000   0.0000   0.0000   0.2465
   6.250   0.6959   0.01144   0.00519  -0.0005  0.0276  1.0000  -3.7213   0.0000   0.0000   0.0000   0.2455
   6.500   0.7203   0.01189   0.00566   0.0001  0.0253  1.0000  -3.9539   0.0000   0.0000   0.0000   0.2444
   6.750   0.7452   0.01227   0.00606   0.0006  0.0235  1.0000  -4.1985   0.0000   0.0000   0.0000   0.2435
   7.000   0.7689   0.01289   0.00672   0.0013  0.0219  1.0000  -4.4300   0.0000   0.0000   0.0000   0.2424
   7.250   0.7939   0.01330   0.00718   0.0018  0.0206  1.0000  -4.6773   0.0000   0.0000   0.0000   0.2416
   7.500   0.8186   0.01375   0.00765   0.0023  0.0194  1.0000  -4.9370   0.0000   0.0000   0.0000   0.2408
   7.750   0.8415   0.01452   0.00846   0.0030  0.0182  1.0000  -5.1725   0.0000   0.0000   0.0000   0.2398
   8.000   0.8662   0.01500   0.00902   0.0035  0.0173  1.0000  -5.4513   0.0000   0.0000   0.0000   0.2391
   8.250   0.8904   0.01554   0.00962   0.0040  0.0165  1.0000  -5.7455   0.0000   0.0000   0.0000   0.2383
   8.500   0.9140   0.01616   0.01027   0.0045  0.0157  1.0000  -6.0457   0.0000   0.0000   0.0000   0.2376
   8.750   0.9337   0.01748   0.01167   0.0056  0.0150  1.0000  -6.2899   0.0000   0.0000   0.0000   0.2363
   9.000   0.9574   0.01811   0.01242   0.0062  0.0145  1.0000  -6.5852   0.0000   0.0000   0.0000   0.2356
   9.250   0.9800   0.01891   0.01332   0.0069  0.0140  1.0000  -6.8726   0.0000   0.0000   0.0000   0.2347
   9.500   1.0022   0.01972   0.01424   0.0075  0.0135  1.0000  -7.1660   0.0000   0.0000   0.0000   0.2339
   9.750   1.0246   0.02043   0.01503   0.0082  0.0130  1.0000  -7.4823   0.0000   0.0000   0.0000   0.2332
  10.000   1.0462   0.02120   0.01585   0.0088  0.0125  1.0000  -7.8070   0.0000   0.0000   0.0000   0.2324
  10.250   1.0597   0.02345   0.01827   0.0102  0.0119  1.0000  -7.9963   0.0000   0.0000   0.0000   0.2309
  10.500   1.0801   0.02434   0.01933   0.0111  0.0117  1.0000  -8.2862   0.0000   0.0000   0.0000   0.2300
  10.750   1.0982   0.02557   0.02075   0.0121  0.0114  1.0000  -8.5461   0.0000   0.0000   0.0000   0.2289
  11.000   1.1141   0.02703   0.02241   0.0133  0.0111  1.0000  -8.7841   0.0000   0.0000   0.0000   0.2277
  11.250   1.1281   0.02864   0.02422   0.0146  0.0108  1.0000  -9.0074   0.0000   0.0000   0.0000   0.2264
  11.500   1.1400   0.03035   0.02612   0.0159  0.0106  1.0000  -9.2208   0.0000   0.0000   0.0000   0.2250
  11.750   1.1497   0.03214   0.02810   0.0174  0.0103  1.0000  -9.4225   0.0000   0.0000   0.0000   0.2235
  12.000   1.1564   0.03405   0.03020   0.0190  0.0102  1.0000  -9.6037   0.0000   0.0000   0.0000   0.2218
  12.250   1.1580   0.03599   0.03231   0.0211  0.0100  1.0000  -9.7526   0.0000   0.0000   0.0000   0.2197
  12.500   1.1541   0.03814   0.03462   0.0234  0.0099  1.0000  -9.8750   0.0000   0.0000   0.0000   0.2173
  12.750   1.1476   0.04082   0.03747   0.0245  0.0098  1.0000  -9.9661   0.0000   0.0000   0.0000   0.2158
  13.000   1.1381   0.04434   0.04117   0.0242  0.0098  1.0000  -10.0082   0.0000   0.0000   0.0000   0.2154
  13.250   1.1246   0.04921   0.04625   0.0217  0.0097  1.0000  -9.9756   0.0000   0.0000   0.0000   0.2168
  13.500   1.1044   0.05641   0.05368   0.0164  0.0097  1.0000  -9.8119   0.0000   0.0000   0.0000   0.2208
  13.750   1.0655   0.06898   0.06656   0.0063  0.0099  1.0000  -9.3049   0.0000   0.0000   0.0000   0.2293
  17.000   0.8028   0.20971   0.20773  -0.0622  0.0119  1.0000  -2.5792   0.0000   0.0000   0.0000   0.3129
  17.250   0.8086   0.21441   0.21243  -0.0648  0.0119  1.0000  -2.4657   0.0000   0.0000   0.0000   0.3154
  17.500   0.8122   0.22153   0.21954  -0.0696  0.0112  1.0000  -2.0625   0.0000   0.0000   0.0000   0.3210
  17.750   0.8196   0.22547   0.22348  -0.0718  0.0105  1.0000  -2.0431   0.0000   0.0000   0.0000   0.3226
  18.000   0.8273   0.22902   0.22703  -0.0738  0.0101  1.0000  -2.0653   0.0000   0.0000   0.0000   0.3239
  18.250   0.8352   0.23238   0.23039  -0.0758  0.0098  1.0000  -2.1046   0.0000   0.0000   0.0000   0.3251
  18.500   0.8432   0.23556   0.23357  -0.0777  0.0096  1.0000  -2.1598   0.0000   0.0000   0.0000   0.3261
  18.750   0.8513   0.23855   0.23657  -0.0795  0.0095  1.0000  -2.2325   0.0000   0.0000   0.0000   0.3269
  19.000   0.8595   0.24138   0.23940  -0.0810  0.0093  1.0000  -2.3272   0.0000   0.0000   0.0000   0.3274
  19.250   0.8680   0.24417   0.24221  -0.0820  0.0092  1.0000  -2.4624   0.0000   0.0000   0.0000   0.3270
  19.500   0.8751   0.24848   0.24650  -0.0842  0.0091  1.0000  -2.4221   0.0000   0.0000   0.0000   0.3285
  19.750   0.8821   0.25282   0.25084  -0.0873  0.0091  1.0000  -2.3208   0.0000   0.0000   0.0000   0.3310
  20.000   0.8897   0.25792   0.25594  -0.0910  0.0089  1.0000  -2.1257   0.0000   0.0000   0.0000   0.3341


