xflr5 v6.61

 Calculated polar for: NACA 0009

 1 1 Reynolds number fixed          Mach number fixed         

 xtrf =   1.000 (top)        1.000 (bottom)
 Mach =   0.000     Re =     0.780 e 6     Ncrit =   9.000

  alpha     CL        CD       CDp       Cm    Top Xtr Bot Xtr   Cpmin    Chinge    XCp    
 ------- -------- --------- --------- -------- ------- ------- -------- --------- ---------
 -10.000  -1.0464   0.02107   0.01575  -0.0087  1.0000  0.0121  -7.8318   0.0000   0.0000   0.0000   0.2325
  -9.750  -1.0279   0.01973   0.01432  -0.0077  1.0000  0.0127  -7.5590   0.0000   0.0000   0.0000   0.2337
  -9.500  -1.0054   0.01906   0.01359  -0.0071  1.0000  0.0132  -7.2324   0.0000   0.0000   0.0000   0.2344
  -9.250  -0.9827   0.01834   0.01280  -0.0065  1.0000  0.0137  -6.9238   0.0000   0.0000   0.0000   0.2351
  -9.000  -0.9599   0.01759   0.01194  -0.0058  1.0000  0.0142  -6.6291   0.0000   0.0000   0.0000   0.2359
  -8.750  -0.9366   0.01692   0.01118  -0.0052  1.0000  0.0147  -6.3339   0.0000   0.0000   0.0000   0.2367
  -8.500  -0.9144   0.01601   0.01016  -0.0044  1.0000  0.0153  -6.0626   0.0000   0.0000   0.0000   0.2377
  -8.250  -0.8922   0.01515   0.00927  -0.0037  1.0000  0.0161  -5.7805   0.0000   0.0000   0.0000   0.2387
  -8.000  -0.8679   0.01463   0.00871  -0.0032  1.0000  0.0169  -5.4798   0.0000   0.0000   0.0000   0.2394
  -7.750  -0.8433   0.01415   0.00816  -0.0027  1.0000  0.0178  -5.1993   0.0000   0.0000   0.0000   0.2401
  -7.500  -0.8191   0.01358   0.00753  -0.0021  1.0000  0.0188  -4.9522   0.0000   0.0000   0.0000   0.2410
  -7.250  -0.7951   0.01301   0.00695  -0.0016  1.0000  0.0202  -4.6990   0.0000   0.0000   0.0000   0.2418
  -7.000  -0.7701   0.01261   0.00651  -0.0011  1.0000  0.0215  -4.4471   0.0000   0.0000   0.0000   0.2426
  -6.750  -0.7459   0.01209   0.00593  -0.0005  1.0000  0.0230  -4.2111   0.0000   0.0000   0.0000   0.2436
  -6.500  -0.7212   0.01167   0.00551   0.0000  1.0000  0.0248  -3.9666   0.0000   0.0000   0.0000   0.2446
  -6.250  -0.6963   0.01130   0.00510   0.0006  1.0000  0.0268  -3.7293   0.0000   0.0000   0.0000   0.2456
  -6.000  -0.6718   0.01092   0.00473   0.0012  1.0000  0.0297  -3.4937   0.0000   0.0000   0.0000   0.2467
  -5.750  -0.6475   0.01054   0.00435   0.0019  1.0000  0.0329  -3.2669   0.0000   0.0000   0.0000   0.2480
  -5.500  -0.6231   0.01022   0.00402   0.0026  1.0000  0.0369  -3.0538   0.0000   0.0000   0.0000   0.2494
  -5.250  -0.5988   0.00990   0.00372   0.0032  1.0000  0.0421  -2.8575   0.0000   0.0000   0.0000   0.2509
  -5.000  -0.5746   0.00958   0.00344   0.0039  1.0000  0.0496  -2.6643   0.0000   0.0000   0.0000   0.2526
  -4.750  -0.5505   0.00928   0.00318   0.0047  1.0000  0.0598  -2.4756   0.0000   0.0000   0.0000   0.2543
  -4.500  -0.5267   0.00897   0.00295   0.0054  1.0000  0.0746  -2.2910   0.0000   0.0000   0.0000   0.2563
  -4.250  -0.5030   0.00865   0.00274   0.0061  1.0000  0.0964  -2.1107   0.0000   0.0000   0.0000   0.2584
  -4.000  -0.4793   0.00832   0.00254   0.0069  1.0000  0.1248  -1.9481   0.0000   0.0000   0.0000   0.2607
  -3.750  -0.4556   0.00799   0.00237   0.0075  1.0000  0.1611  -1.7934   0.0000   0.0000   0.0000   0.2630
  -3.500  -0.4318   0.00766   0.00222   0.0082  1.0000  0.2035  -1.6418   0.0000   0.0000   0.0000   0.2656
  -3.250  -0.4024   0.00730   0.00207   0.0076  0.9990  0.2549  -1.4796   0.0000   0.0000   0.0000   0.2656
  -3.000  -0.3664   0.00692   0.00193   0.0055  0.9968  0.3138  -1.3198   0.0000   0.0000   0.0000   0.2619
  -2.750  -0.3303   0.00657   0.00181   0.0035  0.9940  0.3727  -1.1646   0.0000   0.0000   0.0000   0.2576
  -2.500  -0.2944   0.00625   0.00170   0.0016  0.9908  0.4298  -1.0279   0.0000   0.0000   0.0000   0.2525
  -2.000  -0.2226   0.00567   0.00152  -0.0021  0.9832  0.5385  -0.7857   0.0000   0.0000   0.0000   0.2376
  -1.750  -0.1889   0.00541   0.00144  -0.0034  0.9771  0.5883  -0.6872   0.0000   0.0000   0.0000   0.2292
  -1.500  -0.1573   0.00519   0.00138  -0.0041  0.9685  0.6353  -0.6030   0.0000   0.0000   0.0000   0.2210
  -1.250  -0.1278   0.00499   0.00133  -0.0043  0.9573  0.6790  -0.5312   0.0000   0.0000   0.0000   0.2136
  -1.000  -0.1005   0.00482   0.00129  -0.0039  0.9430  0.7196  -0.4716   0.0000   0.0000   0.0000   0.2086
  -0.750  -0.0749   0.00468   0.00126  -0.0031  0.9256  0.7576  -0.4214   0.0000   0.0000   0.0000   0.2063
  -0.500  -0.0498   0.00458   0.00123  -0.0021  0.9050  0.7927  -0.3790   0.0000   0.0000   0.0000   0.2056
  -0.250  -0.0249   0.00452   0.00122  -0.0010  0.8814  0.8254  -0.3424   0.0000   0.0000   0.0000   0.2051
   0.000   0.0000   0.00450   0.00122  -0.0000  0.8549  0.8549  -0.3106   0.0000   0.0000   0.0000   0.4497
   0.250   0.0249   0.00452   0.00122   0.0010  0.8254  0.8814  -0.3424   0.0000   0.0000   0.0000   0.2051
   0.500   0.0498   0.00458   0.00123   0.0021  0.7926  0.9050  -0.3790   0.0000   0.0000   0.0000   0.2056
   0.750   0.0749   0.00468   0.00126   0.0031  0.7576  0.9256  -0.4214   0.0000   0.0000   0.0000   0.2063
   1.000   0.1005   0.00482   0.00129   0.0039  0.7196  0.9430  -0.4716   0.0000   0.0000   0.0000   0.2086
   1.250   0.1278   0.00499   0.00133   0.0043  0.6790  0.9573  -0.5312   0.0000   0.0000   0.0000   0.2136
   1.500   0.1573   0.00519   0.00138   0.0041  0.6352  0.9685  -0.6030   0.0000   0.0000   0.0000   0.2210
   1.750   0.1889   0.00541   0.00144   0.0034  0.5883  0.9771  -0.6872   0.0000   0.0000   0.0000   0.2292
   2.000   0.2226   0.00567   0.00152   0.0021  0.5385  0.9832  -0.7857   0.0000   0.0000   0.0000   0.2376
   2.250   0.2578   0.00595   0.00160   0.0004  0.4855  0.9878  -0.8992   0.0000   0.0000   0.0000   0.2454
   2.500   0.2944   0.00625   0.00170  -0.0016  0.4298  0.9908  -1.0279   0.0000   0.0000   0.0000   0.2525
   2.750   0.3303   0.00657   0.00181  -0.0035  0.3727  0.9940  -1.1646   0.0000   0.0000   0.0000   0.2576
   3.000   0.3664   0.00692   0.00193  -0.0055  0.3138  0.9968  -1.3198   0.0000   0.0000   0.0000   0.2620
   3.250   0.4024   0.00730   0.00207  -0.0076  0.2549  0.9990  -1.4797   0.0000   0.0000   0.0000   0.2656
   3.500   0.4317   0.00766   0.00222  -0.0082  0.2035  1.0000  -1.6417   0.0000   0.0000   0.0000   0.2655
   3.750   0.4556   0.00799   0.00237  -0.0075  0.1612  1.0000  -1.7933   0.0000   0.0000   0.0000   0.2630
   4.000   0.4792   0.00832   0.00254  -0.0068  0.1248  1.0000  -1.9479   0.0000   0.0000   0.0000   0.2606
   4.250   0.5029   0.00864   0.00274  -0.0061  0.0964  1.0000  -2.1106   0.0000   0.0000   0.0000   0.2584
   4.500   0.5266   0.00897   0.00295  -0.0054  0.0747  1.0000  -2.2909   0.0000   0.0000   0.0000   0.2563
   4.750   0.5505   0.00928   0.00318  -0.0047  0.0598  1.0000  -2.4755   0.0000   0.0000   0.0000   0.2543
   5.000   0.5746   0.00958   0.00344  -0.0039  0.0496  1.0000  -2.6642   0.0000   0.0000   0.0000   0.2525
   5.250   0.5987   0.00990   0.00372  -0.0032  0.0422  1.0000  -2.8573   0.0000   0.0000   0.0000   0.2509
   5.500   0.6231   0.01022   0.00402  -0.0025  0.0369  1.0000  -3.0537   0.0000   0.0000   0.0000   0.2494
   5.750   0.6475   0.01054   0.00435  -0.0019  0.0329  1.0000  -3.2668   0.0000   0.0000   0.0000   0.2480
   6.000   0.6718   0.01092   0.00472  -0.0012  0.0297  1.0000  -3.4936   0.0000   0.0000   0.0000   0.2467
   6.250   0.6963   0.01130   0.00510  -0.0006  0.0268  1.0000  -3.7293   0.0000   0.0000   0.0000   0.2456
   6.500   0.7212   0.01167   0.00551  -0.0000  0.0248  1.0000  -3.9665   0.0000   0.0000   0.0000   0.2446
   6.750   0.7459   0.01209   0.00593   0.0005  0.0230  1.0000  -4.2111   0.0000   0.0000   0.0000   0.2436
   7.000   0.7701   0.01261   0.00651   0.0011  0.0215  1.0000  -4.4471   0.0000   0.0000   0.0000   0.2426
   7.250   0.7951   0.01301   0.00695   0.0016  0.0202  1.0000  -4.6990   0.0000   0.0000   0.0000   0.2418
   7.500   0.8191   0.01358   0.00753   0.0021  0.0188  1.0000  -4.9522   0.0000   0.0000   0.0000   0.2410
   7.750   0.8433   0.01415   0.00816   0.0027  0.0178  1.0000  -5.1994   0.0000   0.0000   0.0000   0.2401
   8.000   0.8679   0.01463   0.00871   0.0032  0.0169  1.0000  -5.4800   0.0000   0.0000   0.0000   0.2394
   8.250   0.8922   0.01515   0.00927   0.0037  0.0161  1.0000  -5.7807   0.0000   0.0000   0.0000   0.2387
   8.500   0.9145   0.01601   0.01016   0.0044  0.0153  1.0000  -6.0628   0.0000   0.0000   0.0000   0.2377
   8.750   0.9366   0.01692   0.01118   0.0052  0.0147  1.0000  -6.3342   0.0000   0.0000   0.0000   0.2367
   9.000   0.9600   0.01759   0.01194   0.0058  0.0142  1.0000  -6.6294   0.0000   0.0000   0.0000   0.2360
   9.250   0.9828   0.01834   0.01280   0.0065  0.0137  1.0000  -6.9241   0.0000   0.0000   0.0000   0.2351
   9.500   1.0054   0.01906   0.01359   0.0071  0.0131  1.0000  -7.2328   0.0000   0.0000   0.0000   0.2344
   9.750   1.0280   0.01973   0.01432   0.0076  0.0127  1.0000  -7.5595   0.0000   0.0000   0.0000   0.2337
  10.000   1.0465   0.02108   0.01575   0.0086  0.0121  1.0000  -7.8321   0.0000   0.0000   0.0000   0.2326
  10.250   1.0650   0.02243   0.01729   0.0097  0.0117  1.0000  -8.0863   0.0000   0.0000   0.0000   0.2314
  10.500   1.0850   0.02344   0.01845   0.0105  0.0114  1.0000  -8.3711   0.0000   0.0000   0.0000   0.2305
  10.750   1.1034   0.02464   0.01982   0.0115  0.0111  1.0000  -8.6393   0.0000   0.0000   0.0000   0.2294
  11.000   1.1203   0.02595   0.02130   0.0126  0.0108  1.0000  -8.8995   0.0000   0.0000   0.0000   0.2283
  11.250   1.1360   0.02733   0.02284   0.0138  0.0105  1.0000  -9.1557   0.0000   0.0000   0.0000   0.2271
  11.500   1.1503   0.02876   0.02443   0.0150  0.0102  1.0000  -9.4087   0.0000   0.0000   0.0000   0.2259
  11.750   1.1631   0.03020   0.02602   0.0163  0.0100  1.0000  -9.6602   0.0000   0.0000   0.0000   0.2246
  12.000   1.1739   0.03171   0.02767   0.0176  0.0098  1.0000  -9.9030   0.0000   0.0000   0.0000   0.2232
  12.250   1.1814   0.03340   0.02950   0.0192  0.0097  1.0000  -10.1188   0.0000   0.0000   0.0000   0.2216
  12.500   1.1809   0.03535   0.03159   0.0216  0.0096  1.0000  -10.2680   0.0000   0.0000   0.0000   0.2192
  12.750   1.1738   0.03788   0.03429   0.0238  0.0095  1.0000  -10.3574   0.0000   0.0000   0.0000   0.2168
  13.000   1.1619   0.04129   0.03791   0.0246  0.0094  1.0000  -10.3761   0.0000   0.0000   0.0000   0.2155
  13.250   1.1467   0.04582   0.04264   0.0234  0.0093  1.0000  -10.3346   0.0000   0.0000   0.0000   0.2157
  13.500   1.1300   0.05162   0.04866   0.0199  0.0093  1.0000  -10.2464   0.0000   0.0000   0.0000   0.2181
  13.750   1.1128   0.05873   0.05598   0.0144  0.0093  1.0000  -10.1157   0.0000   0.0000   0.0000   0.2222
  14.000   1.0939   0.06716   0.06460   0.0076  0.0094  1.0000  -9.9276   0.0000   0.0000   0.0000   0.2277
  14.250   1.0679   0.07770   0.07534  -0.0002  0.0095  1.0000  -9.5952   0.0000   0.0000   0.0000   0.2345


