xflr5 v6.61

 Calculated polar for: NACA 0012

 1 1 Reynolds number fixed          Mach number fixed         

 xtrf =   1.000 (top)        1.000 (bottom)
 Mach =   0.000     Re =     0.120 e 6     Ncrit =   9.000

  alpha     CL        CD       CDp       Cm    Top Xtr Bot Xtr   Cpmin    Chinge    XCp    
 ------- -------- --------- --------- -------- ------- ------- -------- --------- ---------
 -10.000  -0.9959   0.03920   0.03120  -0.0186  1.0000  0.0688  -4.3499   0.0000   0.0000   0.0000   0.2206
  -9.750  -0.9878   0.03671   0.02814  -0.0162  1.0000  0.0708  -4.3082   0.0000   0.0000   0.0000   0.2232
  -9.500  -0.9672   0.03497   0.02645  -0.0156  1.0000  0.0736  -4.1615   0.0000   0.0000   0.0000   0.2237
  -9.250  -0.9505   0.03324   0.02442  -0.0141  1.0000  0.0768  -4.0551   0.0000   0.0000   0.0000   0.2252
  -9.000  -0.9313   0.03133   0.02232  -0.0130  1.0000  0.0796  -3.9400   0.0000   0.0000   0.0000   0.2264
  -8.750  -0.9102   0.02988   0.02079  -0.0120  1.0000  0.0834  -3.8048   0.0000   0.0000   0.0000   0.2274
  -8.500  -0.8895   0.02845   0.01926  -0.0110  1.0000  0.0878  -3.6696   0.0000   0.0000   0.0000   0.2284
  -8.250  -0.8694   0.02720   0.01777  -0.0097  1.0000  0.0930  -3.5441   0.0000   0.0000   0.0000   0.2299
  -8.000  -0.8465   0.02590   0.01658  -0.0090  1.0000  0.0984  -3.3997   0.0000   0.0000   0.0000   0.2306
  -7.750  -0.8251   0.02475   0.01544  -0.0080  1.0000  0.1050  -3.2730   0.0000   0.0000   0.0000   0.2318
  -7.500  -0.8039   0.02365   0.01435  -0.0069  1.0000  0.1125  -3.1480   0.0000   0.0000   0.0000   0.2331
  -7.250  -0.7832   0.02262   0.01336  -0.0057  1.0000  0.1214  -3.0228   0.0000   0.0000   0.0000   0.2347
  -7.000  -0.7630   0.02167   0.01243  -0.0044  1.0000  0.1321  -2.8984   0.0000   0.0000   0.0000   0.2364
  -6.750  -0.7433   0.02074   0.01154  -0.0031  1.0000  0.1451  -2.7760   0.0000   0.0000   0.0000   0.2383
  -6.500  -0.7242   0.01985   0.01079  -0.0016  1.0000  0.1602  -2.6539   0.0000   0.0000   0.0000   0.2405
  -6.250  -0.7056   0.01900   0.01007  -0.0001  1.0000  0.1791  -2.5438   0.0000   0.0000   0.0000   0.2428
  -6.000  -0.6871   0.01819   0.00938   0.0015  1.0000  0.2032  -2.4341   0.0000   0.0000   0.0000   0.2453
  -5.750  -0.6691   0.01740   0.00881   0.0031  1.0000  0.2315  -2.3237   0.0000   0.0000   0.0000   0.2480
  -5.500  -0.6509   0.01670   0.00831   0.0048  1.0000  0.2653  -2.2127   0.0000   0.0000   0.0000   0.2509
  -5.250  -0.6325   0.01608   0.00789   0.0064  1.0000  0.3028  -2.1006   0.0000   0.0000   0.0000   0.2539
  -5.000  -0.6137   0.01555   0.00754   0.0080  1.0000  0.3419  -1.9966   0.0000   0.0000   0.0000   0.2570
  -4.750  -0.5945   0.01509   0.00726   0.0095  1.0000  0.3813  -1.8922   0.0000   0.0000   0.0000   0.2603
  -4.500  -0.5748   0.01470   0.00703   0.0111  1.0000  0.4203  -1.7876   0.0000   0.0000   0.0000   0.2637
  -4.250  -0.5547   0.01436   0.00684   0.0125  1.0000  0.4589  -1.6840   0.0000   0.0000   0.0000   0.2672
  -4.000  -0.5343   0.01406   0.00668   0.0140  1.0000  0.4964  -1.5883   0.0000   0.0000   0.0000   0.2711
  -3.750  -0.5136   0.01380   0.00658   0.0155  1.0000  0.5330  -1.4933   0.0000   0.0000   0.0000   0.2751
  -3.500  -0.4927   0.01359   0.00649   0.0169  1.0000  0.5700  -1.4002   0.0000   0.0000   0.0000   0.2795
  -3.250  -0.4715   0.01340   0.00646   0.0183  1.0000  0.6053  -1.3140   0.0000   0.0000   0.0000   0.2843
  -3.000  -0.4503   0.01326   0.00644   0.0198  1.0000  0.6413  -1.2291   0.0000   0.0000   0.0000   0.2895
  -2.750  -0.4289   0.01316   0.00648   0.0213  1.0000  0.6763  -1.1502   0.0000   0.0000   0.0000   0.2953
  -2.500  -0.4076   0.01311   0.00657   0.0228  1.0000  0.7110  -1.0736   0.0000   0.0000   0.0000   0.3019
  -2.250  -0.3866   0.01310   0.00669   0.0244  1.0000  0.7460  -1.0038   0.0000   0.0000   0.0000   0.3092
  -2.000  -0.3663   0.01316   0.00686   0.0262  1.0000  0.7792  -0.9377   0.0000   0.0000   0.0000   0.3180
  -1.750  -0.3468   0.01328   0.00707   0.0282  1.0000  0.8136  -0.8768   0.0000   0.0000   0.0000   0.3278
  -1.500  -0.3276   0.01348   0.00736   0.0303  1.0000  0.8457  -0.8206   0.0000   0.0000   0.0000   0.3392
  -1.250  -0.3076   0.01375   0.00768   0.0322  1.0000  0.8793  -0.7673   0.0000   0.0000   0.0000   0.3515
  -1.000  -0.2749   0.01415   0.00809   0.0316  0.9980  0.9100  -0.7042   0.0000   0.0000   0.0000   0.3619
  -0.750  -0.2153   0.01463   0.00853   0.0256  0.9900  0.9338  -0.6221   0.0000   0.0000   0.0000   0.3663
  -0.500  -0.1477   0.01505   0.00890   0.0180  0.9830  0.9496  -0.5440   0.0000   0.0000   0.0000   0.3693
  -0.250  -0.0755   0.01533   0.00915   0.0094  0.9762  0.9609  -0.4732   0.0000   0.0000   0.0000   0.3715
   0.000   0.0000   0.01543   0.00923  -0.0000  0.9690  0.9690  -0.4092   0.0000   0.0000   0.0000   0.3196
   0.250   0.0755   0.01533   0.00915  -0.0094  0.9609  0.9762  -0.4732   0.0000   0.0000   0.0000   0.3715
   0.500   0.1477   0.01505   0.00890  -0.0180  0.9496  0.9830  -0.5440   0.0000   0.0000   0.0000   0.3693
   0.750   0.2153   0.01463   0.00853  -0.0256  0.9337  0.9900  -0.6221   0.0000   0.0000   0.0000   0.3663
   1.000   0.2749   0.01415   0.00809  -0.0316  0.9100  0.9979  -0.7042   0.0000   0.0000   0.0000   0.3619
   1.250   0.3075   0.01375   0.00768  -0.0322  0.8793  1.0000  -0.7672   0.0000   0.0000   0.0000   0.3515
   1.500   0.3275   0.01348   0.00736  -0.0303  0.8458  1.0000  -0.8205   0.0000   0.0000   0.0000   0.3392
   1.750   0.3468   0.01328   0.00707  -0.0282  0.8136  1.0000  -0.8767   0.0000   0.0000   0.0000   0.3278
   2.000   0.3662   0.01316   0.00686  -0.0262  0.7792  1.0000  -0.9376   0.0000   0.0000   0.0000   0.3179
   2.250   0.3866   0.01310   0.00668  -0.0244  0.7460  1.0000  -1.0037   0.0000   0.0000   0.0000   0.3092
   2.500   0.4075   0.01311   0.00657  -0.0228  0.7110  1.0000  -1.0735   0.0000   0.0000   0.0000   0.3019
   2.750   0.4288   0.01316   0.00648  -0.0213  0.6763  1.0000  -1.1501   0.0000   0.0000   0.0000   0.2953
   3.000   0.4502   0.01326   0.00644  -0.0198  0.6412  1.0000  -1.2290   0.0000   0.0000   0.0000   0.2895
   3.250   0.4715   0.01340   0.00646  -0.0183  0.6054  1.0000  -1.3139   0.0000   0.0000   0.0000   0.2843
   3.500   0.4926   0.01359   0.00649  -0.0169  0.5700  1.0000  -1.4001   0.0000   0.0000   0.0000   0.2795
   3.750   0.5136   0.01380   0.00658  -0.0155  0.5330  1.0000  -1.4931   0.0000   0.0000   0.0000   0.2751
   4.000   0.5343   0.01406   0.00668  -0.0140  0.4965  1.0000  -1.5882   0.0000   0.0000   0.0000   0.2710
   4.250   0.5547   0.01436   0.00684  -0.0125  0.4589  1.0000  -1.6839   0.0000   0.0000   0.0000   0.2672
   4.500   0.5747   0.01470   0.00703  -0.0110  0.4203  1.0000  -1.7875   0.0000   0.0000   0.0000   0.2636
   4.750   0.5944   0.01509   0.00726  -0.0095  0.3814  1.0000  -1.8920   0.0000   0.0000   0.0000   0.2602
   5.000   0.6136   0.01555   0.00754  -0.0080  0.3419  1.0000  -1.9965   0.0000   0.0000   0.0000   0.2570
   5.250   0.6324   0.01608   0.00789  -0.0064  0.3028  1.0000  -2.1005   0.0000   0.0000   0.0000   0.2539
   5.500   0.6508   0.01670   0.00831  -0.0048  0.2653  1.0000  -2.2126   0.0000   0.0000   0.0000   0.2509
   5.750   0.6690   0.01740   0.00881  -0.0031  0.2315  1.0000  -2.3236   0.0000   0.0000   0.0000   0.2480
   6.000   0.6870   0.01819   0.00938  -0.0015  0.2032  1.0000  -2.4340   0.0000   0.0000   0.0000   0.2453
   6.250   0.7056   0.01899   0.01007   0.0001  0.1791  1.0000  -2.5437   0.0000   0.0000   0.0000   0.2428
   6.500   0.7242   0.01985   0.01079   0.0016  0.1602  1.0000  -2.6538   0.0000   0.0000   0.0000   0.2405
   6.750   0.7432   0.02074   0.01154   0.0031  0.1451  1.0000  -2.7760   0.0000   0.0000   0.0000   0.2383
   7.000   0.7630   0.02167   0.01243   0.0045  0.1322  1.0000  -2.8983   0.0000   0.0000   0.0000   0.2364
   7.250   0.7832   0.02262   0.01335   0.0057  0.1214  1.0000  -3.0228   0.0000   0.0000   0.0000   0.2347
   7.500   0.8039   0.02365   0.01435   0.0069  0.1125  1.0000  -3.1479   0.0000   0.0000   0.0000   0.2331
   7.750   0.8251   0.02475   0.01544   0.0080  0.1050  1.0000  -3.2730   0.0000   0.0000   0.0000   0.2318
   8.000   0.8465   0.02590   0.01658   0.0090  0.0983  1.0000  -3.3997   0.0000   0.0000   0.0000   0.2306
   8.250   0.8694   0.02720   0.01777   0.0097  0.0930  1.0000  -3.5442   0.0000   0.0000   0.0000   0.2299
   8.500   0.8896   0.02844   0.01926   0.0110  0.0878  1.0000  -3.6697   0.0000   0.0000   0.0000   0.2284
   8.750   0.9102   0.02988   0.02079   0.0120  0.0834  1.0000  -3.8048   0.0000   0.0000   0.0000   0.2274
   9.000   0.9313   0.03133   0.02232   0.0130  0.0796  1.0000  -3.9401   0.0000   0.0000   0.0000   0.2264
   9.250   0.9505   0.03324   0.02442   0.0141  0.0768  1.0000  -4.0552   0.0000   0.0000   0.0000   0.2252
   9.500   0.9673   0.03497   0.02645   0.0156  0.0736  1.0000  -4.1618   0.0000   0.0000   0.0000   0.2237
   9.750   0.9878   0.03671   0.02814   0.0162  0.0708  1.0000  -4.3083   0.0000   0.0000   0.0000   0.2232
  10.000   0.9960   0.03920   0.03120   0.0186  0.0688  1.0000  -4.3501   0.0000   0.0000   0.0000   0.2206
  10.250   1.0056   0.04182   0.03419   0.0205  0.0673  1.0000  -4.4097   0.0000   0.0000   0.0000   0.2187
  10.500   1.0175   0.04423   0.03679   0.0220  0.0659  1.0000  -4.5100   0.0000   0.0000   0.0000   0.2172
  10.750   1.0348   0.04668   0.03923   0.0225  0.0643  1.0000  -4.6534   0.0000   0.0000   0.0000   0.2167
  11.000   1.0258   0.05023   0.04337   0.0257  0.0636  1.0000  -4.6240   0.0000   0.0000   0.0000   0.2132
  11.250   1.0116   0.05407   0.04768   0.0287  0.0631  1.0000  -4.5763   0.0000   0.0000   0.0000   0.2096
  11.500   0.9923   0.05799   0.05197   0.0314  0.0629  1.0000  -4.5141   0.0000   0.0000   0.0000   0.2060
  11.750   0.9675   0.06185   0.05609   0.0340  0.0630  1.0000  -4.4386   0.0000   0.0000   0.0000   0.2021
  12.000   0.9413   0.06645   0.06091   0.0345  0.0633  1.0000  -4.3485   0.0000   0.0000   0.0000   0.2001
  12.250   0.9152   0.07190   0.06655   0.0331  0.0637  1.0000  -4.2477   0.0000   0.0000   0.0000   0.2002
  12.500   0.8914   0.07813   0.07290   0.0301  0.0641  1.0000  -4.1444   0.0000   0.0000   0.0000   0.2022
  12.750   0.8723   0.08474   0.07960   0.0266  0.0644  1.0000  -4.0507   0.0000   0.0000   0.0000   0.2050
  14.000   0.6625   0.16296   0.15784  -0.0241  0.1052  1.0000  -1.7761   0.0000   0.0000   0.0000   0.2722
  14.250   0.6725   0.16628   0.16117  -0.0245  0.1023  1.0000  -1.8181   0.0000   0.0000   0.0000   0.2721
  14.500   0.6952   0.17021   0.16515  -0.0225  0.1008  1.0000  -1.9416   0.0000   0.0000   0.0000   0.2678
  14.750   0.6749   0.17440   0.16926  -0.0290  0.0973  1.0000  -1.7558   0.0000   0.0000   0.0000   0.2781
  15.000   0.6841   0.17771   0.17260  -0.0298  0.0945  1.0000  -1.7883   0.0000   0.0000   0.0000   0.2783
  15.250   0.7081   0.18209   0.17701  -0.0277  0.0929  1.0000  -1.9196   0.0000   0.0000   0.0000   0.2736
  15.500   0.6904   0.18552   0.18039  -0.0342  0.0898  1.0000  -1.7358   0.0000   0.0000   0.0000   0.2836
  15.750   0.7010   0.18866   0.18353  -0.0348  0.0866  1.0000  -1.7787   0.0000   0.0000   0.0000   0.2834
  16.000   0.7120   0.19278   0.18766  -0.0352  0.0850  1.0000  -1.8163   0.0000   0.0000   0.0000   0.2830
  16.250   0.7087   0.19621   0.19106  -0.0395  0.0816  1.0000  -1.7309   0.0000   0.0000   0.0000   0.2889
  16.500   0.7185   0.19945   0.19431  -0.0404  0.0794  1.0000  -1.7759   0.0000   0.0000   0.0000   0.2890
  19.000   0.7873   0.23446   0.22931  -0.0610  0.0614  1.0000  -1.7415   0.0000   0.0000   0.0000   0.3067
  19.250   0.7961   0.23764   0.23250  -0.0626  0.0597  1.0000  -1.7590   0.0000   0.0000   0.0000   0.3075
  19.500   0.8074   0.24113   0.23601  -0.0632  0.0585  1.0000  -1.8233   0.0000   0.0000   0.0000   0.3067
  19.750   0.8164   0.24525   0.24012  -0.0647  0.0579  1.0000  -1.8502   0.0000   0.0000   0.0000   0.3073
  20.000   0.8190   0.24794   0.24280  -0.0693  0.0564  1.0000  -1.7602   0.0000   0.0000   0.0000   0.3122


