xflr5 v6.61

 Calculated polar for: NACA 0009

 1 1 Reynolds number fixed          Mach number fixed         

 xtrf =   1.000 (top)        1.000 (bottom)
 Mach =   0.000     Re =     0.400 e 6     Ncrit =   9.000

  alpha     CL        CD       CDp       Cm    Top Xtr Bot Xtr   Cpmin    Chinge    XCp    
 ------- -------- --------- --------- -------- ------- ------- -------- --------- ---------
 -10.000  -0.9947   0.03401   0.02901  -0.0148  1.0000  0.0181  -6.6185   0.0000   0.0000   0.0000   0.2263
  -9.750  -0.9850   0.03129   0.02581  -0.0130  1.0000  0.0184  -6.5515   0.0000   0.0000   0.0000   0.2282
  -9.500  -0.9731   0.02805   0.02222  -0.0116  1.0000  0.0188  -6.4606   0.0000   0.0000   0.0000   0.2297
  -9.250  -0.9549   0.02622   0.02027  -0.0107  1.0000  0.0193  -6.2398   0.0000   0.0000   0.0000   0.2307
  -9.000  -0.9347   0.02487   0.01879  -0.0099  1.0000  0.0199  -6.0017   0.0000   0.0000   0.0000   0.2316
  -8.750  -0.9139   0.02351   0.01725  -0.0090  1.0000  0.0206  -5.7759   0.0000   0.0000   0.0000   0.2325
  -8.500  -0.8925   0.02215   0.01567  -0.0081  1.0000  0.0215  -5.5630   0.0000   0.0000   0.0000   0.2336
  -8.250  -0.8704   0.02095   0.01423  -0.0072  1.0000  0.0224  -5.3430   0.0000   0.0000   0.0000   0.2346
  -8.000  -0.8486   0.01977   0.01307  -0.0066  1.0000  0.0237  -5.0828   0.0000   0.0000   0.0000   0.2354
  -7.750  -0.8253   0.01894   0.01214  -0.0059  1.0000  0.0250  -4.8293   0.0000   0.0000   0.0000   0.2362
  -7.500  -0.8017   0.01809   0.01114  -0.0052  1.0000  0.0262  -4.6269   0.0000   0.0000   0.0000   0.2372
  -7.250  -0.7800   0.01690   0.00995  -0.0043  1.0000  0.0276  -4.4293   0.0000   0.0000   0.0000   0.2383
  -7.000  -0.7564   0.01621   0.00921  -0.0037  1.0000  0.0293  -4.2091   0.0000   0.0000   0.0000   0.2393
  -6.750  -0.7330   0.01546   0.00839  -0.0029  1.0000  0.0315  -4.0006   0.0000   0.0000   0.0000   0.2404
  -6.500  -0.7095   0.01483   0.00777  -0.0022  1.0000  0.0340  -3.7776   0.0000   0.0000   0.0000   0.2414
  -6.250  -0.6863   0.01412   0.00702  -0.0014  1.0000  0.0367  -3.5737   0.0000   0.0000   0.0000   0.2426
  -6.000  -0.6624   0.01358   0.00646  -0.0008  1.0000  0.0401  -3.3598   0.0000   0.0000   0.0000   0.2438
  -5.750  -0.6389   0.01300   0.00589  -0.0000  1.0000  0.0444  -3.1497   0.0000   0.0000   0.0000   0.2451
  -5.500  -0.6152   0.01248   0.00537   0.0007  1.0000  0.0500  -2.9574   0.0000   0.0000   0.0000   0.2465
  -5.250  -0.5914   0.01198   0.00489   0.0015  1.0000  0.0573  -2.7780   0.0000   0.0000   0.0000   0.2480
  -5.000  -0.5680   0.01147   0.00443   0.0023  1.0000  0.0679  -2.5991   0.0000   0.0000   0.0000   0.2497
  -4.750  -0.5445   0.01099   0.00403   0.0030  1.0000  0.0845  -2.4223   0.0000   0.0000   0.0000   0.2514
  -4.500  -0.5212   0.01047   0.00367   0.0038  1.0000  0.1119  -2.2472   0.0000   0.0000   0.0000   0.2533
  -4.250  -0.4981   0.00995   0.00336   0.0045  1.0000  0.1542  -2.0741   0.0000   0.0000   0.0000   0.2552
  -4.000  -0.4749   0.00944   0.00309   0.0052  1.0000  0.2073  -1.9207   0.0000   0.0000   0.0000   0.2573
  -3.750  -0.4516   0.00898   0.00288   0.0059  1.0000  0.2656  -1.7692   0.0000   0.0000   0.0000   0.2595
  -3.500  -0.4281   0.00857   0.00271   0.0065  1.0000  0.3251  -1.6201   0.0000   0.0000   0.0000   0.2618
  -3.250  -0.4044   0.00820   0.00257   0.0072  1.0000  0.3846  -1.4766   0.0000   0.0000   0.0000   0.2645
  -3.000  -0.3805   0.00788   0.00247   0.0078  1.0000  0.4424  -1.3472   0.0000   0.0000   0.0000   0.2673
  -2.750  -0.3563   0.00759   0.00240   0.0084  1.0000  0.4986  -1.2204   0.0000   0.0000   0.0000   0.2706
  -2.500  -0.3320   0.00733   0.00235   0.0090  1.0000  0.5532  -1.1029   0.0000   0.0000   0.0000   0.2743
  -2.250  -0.3075   0.00710   0.00233   0.0096  1.0000  0.6064  -0.9929   0.0000   0.0000   0.0000   0.2785
  -2.000  -0.2826   0.00691   0.00234   0.0102  1.0000  0.6589  -0.8911   0.0000   0.0000   0.0000   0.2834
  -1.750  -0.2574   0.00675   0.00238   0.0107  0.9999  0.7098  -0.7958   0.0000   0.0000   0.0000   0.2890
  -1.500  -0.2184   0.00654   0.00238   0.0084  0.9950  0.7629  -0.6890   0.0000   0.0000   0.0000   0.2861
  -1.250  -0.1801   0.00638   0.00239   0.0064  0.9894  0.8094  -0.5961   0.0000   0.0000   0.0000   0.2831
  -1.000  -0.1421   0.00627   0.00240   0.0046  0.9834  0.8486  -0.5164   0.0000   0.0000   0.0000   0.2797
  -0.750  -0.1040   0.00619   0.00241   0.0028  0.9770  0.8806  -0.4485   0.0000   0.0000   0.0000   0.2742
  -0.500  -0.0680   0.00615   0.00242   0.0015  0.9686  0.9062  -0.3935   0.0000   0.0000   0.0000   0.2698
  -0.250  -0.0336   0.00612   0.00242   0.0006  0.9577  0.9271  -0.3485   0.0000   0.0000   0.0000   0.2669
   0.000   0.0000   0.00612   0.00242  -0.0000  0.9445  0.9444  -0.3106   0.0000   0.0000   0.0000   0.5083
   0.250   0.0336   0.00612   0.00242  -0.0006  0.9271  0.9577  -0.3485   0.0000   0.0000   0.0000   0.2668
   0.500   0.0680   0.00615   0.00242  -0.0015  0.9062  0.9686  -0.3935   0.0000   0.0000   0.0000   0.2698
   0.750   0.1040   0.00619   0.00241  -0.0028  0.8806  0.9770  -0.4485   0.0000   0.0000   0.0000   0.2742
   1.000   0.1421   0.00627   0.00240  -0.0046  0.8485  0.9834  -0.5164   0.0000   0.0000   0.0000   0.2797
   1.250   0.1800   0.00638   0.00239  -0.0064  0.8094  0.9894  -0.5961   0.0000   0.0000   0.0000   0.2831
   1.500   0.2184   0.00654   0.00238  -0.0084  0.7629  0.9950  -0.6890   0.0000   0.0000   0.0000   0.2861
   1.750   0.2574   0.00674   0.00238  -0.0107  0.7097  0.9999  -0.7959   0.0000   0.0000   0.0000   0.2890
   2.000   0.2826   0.00691   0.00234  -0.0102  0.6589  1.0000  -0.8910   0.0000   0.0000   0.0000   0.2833
   2.250   0.3075   0.00710   0.00233  -0.0096  0.6065  1.0000  -0.9929   0.0000   0.0000   0.0000   0.2785
   2.500   0.3320   0.00732   0.00235  -0.0090  0.5532  1.0000  -1.1028   0.0000   0.0000   0.0000   0.2742
   2.750   0.3563   0.00758   0.00239  -0.0084  0.4986  1.0000  -1.2203   0.0000   0.0000   0.0000   0.2706
   3.000   0.3804   0.00788   0.00247  -0.0078  0.4424  1.0000  -1.3471   0.0000   0.0000   0.0000   0.2673
   3.250   0.4044   0.00820   0.00257  -0.0071  0.3846  1.0000  -1.4765   0.0000   0.0000   0.0000   0.2644
   3.500   0.4281   0.00857   0.00271  -0.0065  0.3252  1.0000  -1.6200   0.0000   0.0000   0.0000   0.2618
   3.750   0.4516   0.00898   0.00288  -0.0059  0.2656  1.0000  -1.7691   0.0000   0.0000   0.0000   0.2595
   4.000   0.4749   0.00944   0.00309  -0.0052  0.2073  1.0000  -1.9206   0.0000   0.0000   0.0000   0.2573
   4.250   0.4980   0.00995   0.00336  -0.0045  0.1543  1.0000  -2.0740   0.0000   0.0000   0.0000   0.2552
   4.500   0.5212   0.01047   0.00367  -0.0038  0.1119  1.0000  -2.2471   0.0000   0.0000   0.0000   0.2533
   4.750   0.5445   0.01099   0.00403  -0.0030  0.0845  1.0000  -2.4221   0.0000   0.0000   0.0000   0.2514
   5.000   0.5680   0.01147   0.00443  -0.0023  0.0679  1.0000  -2.5990   0.0000   0.0000   0.0000   0.2497
   5.250   0.5914   0.01198   0.00489  -0.0015  0.0573  1.0000  -2.7779   0.0000   0.0000   0.0000   0.2480
   5.500   0.6152   0.01248   0.00537  -0.0007  0.0500  1.0000  -2.9573   0.0000   0.0000   0.0000   0.2465
   5.750   0.6388   0.01300   0.00589   0.0000  0.0444  1.0000  -3.1496   0.0000   0.0000   0.0000   0.2451
   6.000   0.6624   0.01358   0.00646   0.0008  0.0401  1.0000  -3.3597   0.0000   0.0000   0.0000   0.2438
   6.250   0.6863   0.01412   0.00702   0.0014  0.0367  1.0000  -3.5737   0.0000   0.0000   0.0000   0.2426
   6.500   0.7095   0.01483   0.00777   0.0022  0.0340  1.0000  -3.7776   0.0000   0.0000   0.0000   0.2414
   6.750   0.7330   0.01546   0.00839   0.0029  0.0315  1.0000  -4.0006   0.0000   0.0000   0.0000   0.2404
   7.000   0.7564   0.01621   0.00921   0.0037  0.0293  1.0000  -4.2092   0.0000   0.0000   0.0000   0.2393
   7.250   0.7800   0.01690   0.00995   0.0043  0.0276  1.0000  -4.4293   0.0000   0.0000   0.0000   0.2383
   7.500   0.8017   0.01809   0.01113   0.0052  0.0262  1.0000  -4.6269   0.0000   0.0000   0.0000   0.2372
   7.750   0.8253   0.01894   0.01214   0.0059  0.0250  1.0000  -4.8294   0.0000   0.0000   0.0000   0.2362
   8.000   0.8486   0.01977   0.01307   0.0066  0.0237  1.0000  -5.0830   0.0000   0.0000   0.0000   0.2354
   8.250   0.8705   0.02095   0.01423   0.0072  0.0224  1.0000  -5.3431   0.0000   0.0000   0.0000   0.2346
   8.500   0.8925   0.02215   0.01567   0.0081  0.0215  1.0000  -5.5632   0.0000   0.0000   0.0000   0.2336
   8.750   0.9139   0.02351   0.01725   0.0090  0.0206  1.0000  -5.7762   0.0000   0.0000   0.0000   0.2325
   9.000   0.9348   0.02487   0.01879   0.0099  0.0199  1.0000  -6.0020   0.0000   0.0000   0.0000   0.2316
   9.250   0.9549   0.02622   0.02027   0.0107  0.0193  1.0000  -6.2402   0.0000   0.0000   0.0000   0.2307
   9.500   0.9732   0.02805   0.02222   0.0116  0.0188  1.0000  -6.4609   0.0000   0.0000   0.0000   0.2297
   9.750   0.9850   0.03129   0.02581   0.0130  0.0184  1.0000  -6.5518   0.0000   0.0000   0.0000   0.2282
  10.000   0.9948   0.03402   0.02902   0.0148  0.0181  1.0000  -6.6186   0.0000   0.0000   0.0000   0.2263
  10.250   0.9976   0.03761   0.03312   0.0168  0.0177  1.0000  -6.6069   0.0000   0.0000   0.0000   0.2241
  10.500   0.9924   0.04190   0.03791   0.0190  0.0174  1.0000  -6.5294   0.0000   0.0000   0.0000   0.2216
  10.750   0.9786   0.04664   0.04306   0.0210  0.0173  1.0000  -6.4014   0.0000   0.0000   0.0000   0.2191
  11.000   0.9563   0.05101   0.04772   0.0231  0.0174  1.0000  -6.2618   0.0000   0.0000   0.0000   0.2161
  11.250   0.9323   0.05604   0.05298   0.0223  0.0175  1.0000  -6.1189   0.0000   0.0000   0.0000   0.2159
  11.500   0.9092   0.06259   0.05972   0.0176  0.0177  1.0000  -5.9609   0.0000   0.0000   0.0000   0.2200
  11.750   0.8877   0.07106   0.06834   0.0099  0.0179  1.0000  -5.7767   0.0000   0.0000   0.0000   0.2279
  12.000   0.8682   0.08057   0.07794   0.0018  0.0182  1.0000  -5.5741   0.0000   0.0000   0.0000   0.2366
  12.250   0.8524   0.08894   0.08633  -0.0036  0.0184  1.0000  -5.4013   0.0000   0.0000   0.0000   0.2426
  14.250   0.5307   0.14817   0.14569  -0.0171  0.0277  1.0000  -1.6469   0.0000   0.0000   0.0000   0.2742
  14.500   0.5346   0.15031   0.14783  -0.0176  0.0271  1.0000  -1.6947   0.0000   0.0000   0.0000   0.2747
  14.750   0.5439   0.15205   0.14958  -0.0173  0.0267  1.0000  -1.8308   0.0000   0.0000   0.0000   0.2732
  15.000   0.5487   0.15479   0.15233  -0.0174  0.0264  1.0000  -1.8917   0.0000   0.0000   0.0000   0.2729
  15.250   0.5334   0.15960   0.15712  -0.0216  0.0257  1.0000  -1.5644   0.0000   0.0000   0.0000   0.2820
  15.500   0.5334   0.16272   0.16024  -0.0231  0.0245  1.0000  -1.5065   0.0000   0.0000   0.0000   0.2849
  15.750   0.5362   0.16532   0.16284  -0.0242  0.0236  1.0000  -1.5089   0.0000   0.0000   0.0000   0.2865
  16.000   0.5403   0.16767   0.16521  -0.0251  0.0230  1.0000  -1.5412   0.0000   0.0000   0.0000   0.2875
  16.250   0.5464   0.16982   0.16736  -0.0255  0.0226  1.0000  -1.6162   0.0000   0.0000   0.0000   0.2875
  16.500   0.5591   0.17226   0.16982  -0.0246  0.0223  1.0000  -1.7982   0.0000   0.0000   0.0000   0.2844
  16.750   0.5542   0.17573   0.17328  -0.0272  0.0222  1.0000  -1.6327   0.0000   0.0000   0.0000   0.2894
  17.000   0.5486   0.17948   0.17702  -0.0302  0.0214  1.0000  -1.4184   0.0000   0.0000   0.0000   0.2956
  17.250   0.5513   0.18239   0.17994  -0.0315  0.0205  1.0000  -1.3845   0.0000   0.0000   0.0000   0.2976
  17.500   0.5550   0.18500   0.18255  -0.0326  0.0197  1.0000  -1.3868   0.0000   0.0000   0.0000   0.2991
  17.750   0.5597   0.18732   0.18488  -0.0336  0.0191  1.0000  -1.4249   0.0000   0.0000   0.0000   0.3000
  18.000   0.5665   0.18944   0.18701  -0.0340  0.0187  1.0000  -1.5194   0.0000   0.0000   0.0000   0.2996
  18.250   0.5754   0.19251   0.19008  -0.0339  0.0185  1.0000  -1.6154   0.0000   0.0000   0.0000   0.2982
  18.500   0.5710   0.19574   0.19331  -0.0367  0.0183  1.0000  -1.4149   0.0000   0.0000   0.0000   0.3037
  18.750   0.5715   0.19923   0.19680  -0.0388  0.0175  1.0000  -1.2765   0.0000   0.0000   0.0000   0.3072
  19.000   0.5751   0.20209   0.19966  -0.0400  0.0167  1.0000  -1.2699   0.0000   0.0000   0.0000   0.3088
  19.250   0.5790   0.20480   0.20238  -0.0412  0.0161  1.0000  -1.2808   0.0000   0.0000   0.0000   0.3102
  19.500   0.5833   0.20737   0.20497  -0.0424  0.0157  1.0000  -1.3071   0.0000   0.0000   0.0000   0.3113
  19.750   0.5880   0.20984   0.20745  -0.0433  0.0154  1.0000  -1.3544   0.0000   0.0000   0.0000   0.3121
  20.000   0.5941   0.21235   0.20997  -0.0439  0.0151  1.0000  -1.4406   0.0000   0.0000   0.0000   0.3119


