xflr5 v6.61

 Calculated polar for: QX0026

 1 1 Reynolds number fixed          Mach number fixed         

 xtrf =   1.000 (top)        1.000 (bottom)
 Mach =   0.000     Re =     0.440 e 6     Ncrit =   9.000

  alpha     CL        CD       CDp       Cm    Top Xtr Bot Xtr   Cpmin    Chinge    XCp    
 ------- -------- --------- --------- -------- ------- ------- -------- --------- ---------
 -10.000  -0.4771   0.02942   0.02460  -0.1243  0.8284  0.0271  -5.5410   0.0000   0.0000   0.0000  -0.0299
  -9.750  -0.4606   0.02743   0.02232  -0.1244  0.8249  0.0277  -5.4252   0.0000   0.0000   0.0000  -0.0397
  -9.500  -0.4424   0.02555   0.02009  -0.1245  0.8212  0.0285  -5.3073   0.0000   0.0000   0.0000  -0.0511
  -9.250  -0.4216   0.02427   0.01839  -0.1244  0.8183  0.0293  -5.1655   0.0000   0.0000   0.0000  -0.0650
  -9.000  -0.3999   0.02263   0.01669  -0.1245  0.8150  0.0301  -4.9925   0.0000   0.0000   0.0000  -0.0816
  -8.750  -0.3753   0.02187   0.01585  -0.1246  0.8117  0.0308  -4.7876   0.0000   0.0000   0.0000  -0.1026
  -8.500  -0.3505   0.02104   0.01489  -0.1246  0.8090  0.0316  -4.5957   0.0000   0.0000   0.0000  -0.1267
  -8.250  -0.3255   0.02013   0.01381  -0.1246  0.8060  0.0325  -4.4166   0.0000   0.0000   0.0000  -0.1546
  -8.000  -0.3000   0.01936   0.01282  -0.1245  0.8028  0.0334  -4.2384   0.0000   0.0000   0.0000  -0.1880
  -7.750  -0.2749   0.01835   0.01173  -0.1245  0.8001  0.0344  -4.0601   0.0000   0.0000   0.0000  -0.2269
  -7.500  -0.2484   0.01783   0.01118  -0.1246  0.7976  0.0355  -3.8718   0.0000   0.0000   0.0000  -0.2769
  -7.250  -0.2218   0.01726   0.01054  -0.1246  0.7943  0.0367  -3.6980   0.0000   0.0000   0.0000  -0.3390
  -7.000  -0.1949   0.01672   0.00985  -0.1246  0.7915  0.0379  -3.5311   0.0000   0.0000   0.0000  -0.4190
  -6.750  -0.1686   0.01596   0.00903  -0.1246  0.7892  0.0392  -3.3662   0.0000   0.0000   0.0000  -0.5215
  -6.500  -0.1417   0.01551   0.00860  -0.1247  0.7862  0.0406  -3.1933   0.0000   0.0000   0.0000  -0.6667
  -6.250  -0.1142   0.01514   0.00816  -0.1247  0.7832  0.0425  -3.0373   0.0000   0.0000   0.0000  -0.8856
  -6.000  -0.0874   0.01460   0.00757  -0.1248  0.7807  0.0444  -2.8864   0.0000   0.0000   0.0000  -1.2330
  -5.750  -0.0598   0.01424   0.00720  -0.1248  0.7782  0.0465  -2.7302   0.0000   0.0000   0.0000  -1.9148
  -5.500  -0.0324   0.01387   0.00678  -0.1249  0.7750  0.0488  -2.5833   0.0000   0.0000   0.0000  -3.7397
  -5.250  -0.0050   0.01347   0.00640  -0.1250  0.7721  0.0514  -2.4429   0.0000   0.0000   0.0000  -25.5130
  -5.000   0.0230   0.01314   0.00602  -0.1251  0.7698  0.0548  -2.3079   0.0000   0.0000   0.0000   5.8575
  -4.750   0.0508   0.01288   0.00576  -0.1252  0.7668  0.0586  -2.1714   0.0000   0.0000   0.0000   2.7874
  -4.500   0.0785   0.01256   0.00546  -0.1253  0.7637  0.0630  -2.0389   0.0000   0.0000   0.0000   1.8901
  -4.250   0.1067   0.01228   0.00517  -0.1255  0.7611  0.0687  -1.9066   0.0000   0.0000   0.0000   1.4561
  -4.000   0.1353   0.01203   0.00491  -0.1257  0.7589  0.0767  -1.7749   0.0000   0.0000   0.0000   1.2015
  -3.750   0.1630   0.01177   0.00473  -0.1258  0.7555  0.0880  -1.6557   0.0000   0.0000   0.0000   1.0391
  -3.500   0.1912   0.01152   0.00454  -0.1260  0.7526  0.1058  -1.5388   0.0000   0.0000   0.0000   0.9226
  -3.250   0.2198   0.01127   0.00436  -0.1263  0.7502  0.1298  -1.4214   0.0000   0.0000   0.0000   0.8353
  -3.000   0.2481   0.01108   0.00425  -0.1265  0.7475  0.1571  -1.3055   0.0000   0.0000   0.0000   0.7686
  -2.750   0.2762   0.01088   0.00417  -0.1267  0.7442  0.1873  -1.1918   0.0000   0.0000   0.0000   0.7158
  -2.500   0.3046   0.01066   0.00406  -0.1270  0.7414  0.2233  -1.0800   0.0000   0.0000   0.0000   0.6725
  -2.250   0.3334   0.01044   0.00396  -0.1273  0.7391  0.2699  -0.9776   0.0000   0.0000   0.0000   0.6363
  -2.000   0.3610   0.01024   0.00395  -0.1274  0.7354  0.3245  -0.8794   0.0000   0.0000   0.0000   0.6065
  -1.750   0.3892   0.01005   0.00391  -0.1276  0.7321  0.3783  -0.7829   0.0000   0.0000   0.0000   0.5806
  -1.500   0.4179   0.00986   0.00384  -0.1279  0.7295  0.4338  -0.7851   0.0000   0.0000   0.0000   0.5579
  -1.250   0.4455   0.00969   0.00387  -0.1280  0.7260  0.4937  -0.8009   0.0000   0.0000   0.0000   0.5384
  -1.000   0.4733   0.00953   0.00389  -0.1280  0.7226  0.5535  -0.8169   0.0000   0.0000   0.0000   0.5211
  -0.750   0.5015   0.00939   0.00388  -0.1280  0.7198  0.6096  -0.8358   0.0000   0.0000   0.0000   0.5054
  -0.250   0.5562   0.00922   0.00397  -0.1277  0.7125  0.7074  -0.8743   0.0000   0.0000   0.0000   0.4787
   0.000   0.5842   0.00912   0.00392  -0.1276  0.7091  0.7453  -0.8942   0.0000   0.0000   0.0000   0.4670
   0.250   0.6106   0.00905   0.00396  -0.1272  0.7049  0.7824  -0.9131   0.0000   0.0000   0.0000   0.4565
   0.500   0.6366   0.00895   0.00398  -0.1266  0.7011  0.8222  -0.9341   0.0000   0.0000   0.0000   0.4467
   0.750   0.6620   0.00885   0.00395  -0.1258  0.6981  0.8679  -0.9561   0.0000   0.0000   0.0000   0.4374
   1.000   0.6860   0.00876   0.00399  -0.1246  0.6937  0.9256  -0.9772   0.0000   0.0000   0.0000   0.4287
   1.250   0.7290   0.00867   0.00389  -0.1277  0.6895  0.9910  -1.0093   0.0000   0.0000   0.0000   0.4219
   1.500   0.7597   0.00871   0.00387  -0.1284  0.6854  1.0001  -1.0343   0.0000   0.0000   0.0000   0.4154
   1.750   0.7874   0.00875   0.00389  -0.1285  0.6807  1.0001  -1.0596   0.0000   0.0000   0.0000   0.4092
   2.000   0.8165   0.00879   0.00385  -0.1287  0.6770  1.0001  -1.0883   0.0000   0.0000   0.0000   0.4034
   2.250   0.8434   0.00885   0.00392  -0.1287  0.6715  1.0001  -1.1154   0.0000   0.0000   0.0000   0.3979
   2.500   0.8720   0.00889   0.00390  -0.1289  0.6672  1.0001  -1.1443   0.0000   0.0000   0.0000   0.3928
   2.750   0.8993   0.00896   0.00397  -0.1288  0.6619  1.0001  -1.1728   0.0000   0.0000   0.0000   0.3880
   3.000   0.9275   0.00900   0.00397  -0.1289  0.6569  1.0001  -1.2036   0.0000   0.0000   0.0000   0.3834
   3.250   0.9544   0.00906   0.00403  -0.1288  0.6505  1.0001  -1.2368   0.0000   0.0000   0.0000   0.3791
   3.500   0.9826   0.00911   0.00403  -0.1289  0.6452  1.0001  -1.2713   0.0000   0.0000   0.0000   0.3750
   3.750   1.0092   0.00918   0.00414  -0.1288  0.6387  1.0001  -1.3055   0.0000   0.0000   0.0000   0.3710
   4.000   1.0370   0.00926   0.00418  -0.1288  0.6335  1.0001  -1.3409   0.0000   0.0000   0.0000   0.3673
   4.250   1.0635   0.00934   0.00428  -0.1287  0.6263  1.0001  -1.3755   0.0000   0.0000   0.0000   0.3637
   4.500   1.0901   0.00942   0.00437  -0.1285  0.6191  1.0001  -1.4174   0.0000   0.0000   0.0000   0.3603
   4.750   1.1170   0.00951   0.00443  -0.1284  0.6123  1.0001  -1.4617   0.0000   0.0000   0.0000   0.3570
   5.000   1.1430   0.00961   0.00454  -0.1281  0.6038  1.0001  -1.5054   0.0000   0.0000   0.0000   0.3538
   5.250   1.1687   0.00972   0.00466  -0.1278  0.5946  1.0001  -1.5491   0.0000   0.0000   0.0000   0.3508
   5.500   1.1940   0.00986   0.00478  -0.1274  0.5848  1.0001  -1.5928   0.0000   0.0000   0.0000   0.3478
   5.750   1.2191   0.01002   0.00493  -0.1270  0.5746  1.0001  -1.6368   0.0000   0.0000   0.0000   0.3449
   6.000   1.2436   0.01019   0.00510  -0.1265  0.5639  1.0001  -1.6962   0.0000   0.0000   0.0000   0.3421
   6.250   1.2678   0.01039   0.00529  -0.1260  0.5529  1.0001  -1.7597   0.0000   0.0000   0.0000   0.3393
   6.500   1.2914   0.01060   0.00549  -0.1253  0.5411  1.0001  -1.8252   0.0000   0.0000   0.0000   0.3367
   6.750   1.3140   0.01085   0.00572  -0.1245  0.5281  1.0001  -1.8977   0.0000   0.0000   0.0000   0.3340
   7.000   1.3352   0.01114   0.00598  -0.1234  0.5126  1.0001  -1.9752   0.0000   0.0000   0.0000   0.3313
   7.250   1.3538   0.01153   0.00629  -0.1219  0.4937  1.0001  -2.0529   0.0000   0.0000   0.0000   0.3286
   7.500   1.3713   0.01195   0.00665  -0.1203  0.4732  1.0001  -2.1294   0.0000   0.0000   0.0000   0.3258
   7.750   1.3878   0.01241   0.00705  -0.1185  0.4541  1.0001  -2.2059   0.0000   0.0000   0.0000   0.3231
   8.000   1.4014   0.01292   0.00750  -0.1162  0.4365  1.0001  -2.3024   0.0000   0.0000   0.0000   0.3202
   8.250   1.4130   0.01350   0.00802  -0.1135  0.4187  1.0001  -2.3986   0.0000   0.0000   0.0000   0.3173
   8.500   1.4242   0.01416   0.00862  -0.1111  0.3996  1.0001  -2.4952   0.0000   0.0000   0.0000   0.3145
   8.750   1.4341   0.01495   0.00934  -0.1085  0.3807  1.0001  -2.5894   0.0000   0.0000   0.0000   0.3118
   9.000   1.4432   0.01585   0.01016  -0.1061  0.3628  1.0001  -2.6824   0.0000   0.0000   0.0000   0.3092
   9.250   1.4534   0.01676   0.01103  -0.1039  0.3453  1.0001  -2.7789   0.0000   0.0000   0.0000   0.3068
   9.500   1.4634   0.01775   0.01197  -0.1019  0.3280  1.0001  -2.8780   0.0000   0.0000   0.0000   0.3044
   9.750   1.4718   0.01888   0.01304  -0.0998  0.3112  1.0001  -2.9776   0.0000   0.0000   0.0000   0.3022
  10.000   1.4804   0.02005   0.01416  -0.0978  0.2946  1.0001  -3.0785   0.0000   0.0000   0.0000   0.3000
  10.250   1.4886   0.02129   0.01535  -0.0959  0.2782  1.0001  -3.1795   0.0000   0.0000   0.0000   0.2979
  10.500   1.4961   0.02262   0.01662  -0.0940  0.2610  1.0001  -3.2789   0.0000   0.0000   0.0000   0.2958
  10.750   1.5022   0.02406   0.01800  -0.0920  0.2442  1.0001  -3.3753   0.0000   0.0000   0.0000   0.2938
  11.000   1.5084   0.02554   0.01942  -0.0902  0.2287  1.0001  -3.4725   0.0000   0.0000   0.0000   0.2918
  11.250   1.5145   0.02705   0.02088  -0.0883  0.2135  1.0001  -3.5703   0.0000   0.0000   0.0000   0.2899
  11.750   1.5250   0.03025   0.02398  -0.0848  0.1839  1.0001  -3.7625   0.0000   0.0000   0.0000   0.2862
  12.250   1.5355   0.03356   0.02724  -0.0815  0.1592  1.0001  -3.9568   0.0000   0.0000   0.0000   0.2826
  12.500   1.5400   0.03534   0.02898  -0.0799  0.1468  1.0001  -4.0520   0.0000   0.0000   0.0000   0.2809
  12.750   1.5440   0.03721   0.03082  -0.0783  0.1353  1.0001  -4.1463   0.0000   0.0000   0.0000   0.2793
  13.000   1.5467   0.03923   0.03281  -0.0768  0.1252  1.0001  -4.2361   0.0000   0.0000   0.0000   0.2777
  13.250   1.5509   0.04116   0.03474  -0.0754  0.1151  1.0001  -4.3314   0.0000   0.0000   0.0000   0.2761
  13.500   1.5541   0.04324   0.03680  -0.0741  0.1053  1.0001  -4.4233   0.0000   0.0000   0.0000   0.2747
  13.750   1.5571   0.04539   0.03894  -0.0728  0.0964  1.0001  -4.5183   0.0000   0.0000   0.0000   0.2732
  14.000   1.5595   0.04763   0.04118  -0.0717  0.0885  1.0001  -4.6144   0.0000   0.0000   0.0000   0.2719
  14.250   1.5612   0.04998   0.04353  -0.0705  0.0818  1.0001  -4.7076   0.0000   0.0000   0.0000   0.2705
  14.500   1.5627   0.05241   0.04597  -0.0695  0.0760  1.0001  -4.8001   0.0000   0.0000   0.0000   0.2693
  14.750   1.5641   0.05490   0.04849  -0.0685  0.0708  1.0001  -4.8922   0.0000   0.0000   0.0000   0.2681
  15.000   1.5651   0.05749   0.05110  -0.0676  0.0662  1.0001  -4.9826   0.0000   0.0000   0.0000   0.2669
  15.250   1.5648   0.06026   0.05390  -0.0668  0.0621  1.0001  -5.0679   0.0000   0.0000   0.0000   0.2658
  15.500   1.5663   0.06287   0.05656  -0.0661  0.0581  1.0001  -5.1597   0.0000   0.0000   0.0000   0.2648
  15.750   1.5664   0.06568   0.05942  -0.0655  0.0546  1.0001  -5.2454   0.0000   0.0000   0.0000   0.2638
  16.000   1.5640   0.06884   0.06261  -0.0649  0.0517  1.0001  -5.3229   0.0000   0.0000   0.0000   0.2629
  16.250   1.5643   0.07175   0.06560  -0.0645  0.0484  1.0001  -5.4151   0.0000   0.0000   0.0000   0.2621
  16.500   1.5621   0.07500   0.06891  -0.0642  0.0457  1.0001  -5.5003   0.0000   0.0000   0.0000   0.2613
  16.750   1.5592   0.07838   0.07234  -0.0639  0.0433  1.0001  -5.5839   0.0000   0.0000   0.0000   0.2606
  17.000   1.5562   0.08181   0.07584  -0.0638  0.0410  1.0001  -5.6653   0.0000   0.0000   0.0000   0.2600
  17.250   1.5517   0.08548   0.07958  -0.0637  0.0390  1.0001  -5.7398   0.0000   0.0000   0.0000   0.2595
  17.500   1.5464   0.08934   0.08351  -0.0638  0.0373  1.0001  -5.8075   0.0000   0.0000   0.0000   0.2591
  17.750   1.5429   0.09302   0.08728  -0.0641  0.0356  1.0001  -5.8840   0.0000   0.0000   0.0000   0.2587
  18.000   1.5344   0.09741   0.09171  -0.0645  0.0344  1.0001  -5.9348   0.0000   0.0000   0.0000   0.2586
  18.250   1.5306   0.10120   0.09560  -0.0649  0.0330  1.0001  -6.0061   0.0000   0.0000   0.0000   0.2584
  18.500   1.5264   0.10506   0.09955  -0.0655  0.0318  1.0001  -6.0825   0.0000   0.0000   0.0000   0.2582
  18.750   1.5197   0.10932   0.10387  -0.0662  0.0309  1.0001  -6.1446   0.0000   0.0000   0.0000   0.2583
  19.000   1.5111   0.11389   0.10849  -0.0672  0.0301  1.0001  -6.1920   0.0000   0.0000   0.0000   0.2585
  19.250   1.5084   0.11768   0.11240  -0.0680  0.0293  1.0001  -6.2704   0.0000   0.0000   0.0000   0.2585
  19.500   1.5047   0.12163   0.11644  -0.0690  0.0285  1.0001  -6.3433   0.0000   0.0000   0.0000   0.2587
  19.750   1.5008   0.12563   0.12052  -0.0702  0.0278  1.0001  -6.4144   0.0000   0.0000   0.0000   0.2589
  20.000   1.4964   0.12969   0.12464  -0.0714  0.0272  1.0001  -6.4821   0.0000   0.0000   0.0000   0.2592


