xflr5 v6.61

 Calculated polar for: QX0026

 1 1 Reynolds number fixed          Mach number fixed         

 xtrf =   1.000 (top)        1.000 (bottom)
 Mach =   0.000     Re =     0.900 e 6     Ncrit =   9.000

  alpha     CL        CD       CDp       Cm    Top Xtr Bot Xtr   Cpmin    Chinge    XCp    
 ------- -------- --------- --------- -------- ------- ------- -------- --------- ---------
 -10.000  -0.5293   0.01741   0.01198  -0.1208  0.7867  0.0211  -6.3550   0.0000   0.0000   0.0000   0.0035
  -9.750  -0.5031   0.01694   0.01141  -0.1208  0.7836  0.0215  -6.1139   0.0000   0.0000   0.0000  -0.0086
  -9.500  -0.4796   0.01594   0.01032  -0.1208  0.7809  0.0221  -5.9058   0.0000   0.0000   0.0000  -0.0204
  -9.250  -0.4537   0.01541   0.00973  -0.1208  0.7785  0.0226  -5.6693   0.0000   0.0000   0.0000  -0.0352
  -9.000  -0.4267   0.01504   0.00934  -0.1210  0.7756  0.0232  -5.4256   0.0000   0.0000   0.0000  -0.0527
  -8.750  -0.3995   0.01469   0.00894  -0.1211  0.7728  0.0239  -5.1871   0.0000   0.0000   0.0000  -0.0728
  -8.500  -0.3722   0.01434   0.00851  -0.1212  0.7703  0.0246  -4.9563   0.0000   0.0000   0.0000  -0.0957
  -8.250  -0.3447   0.01402   0.00810  -0.1213  0.7679  0.0251  -4.7295   0.0000   0.0000   0.0000  -0.1227
  -8.000  -0.3186   0.01335   0.00738  -0.1213  0.7651  0.0259  -4.5228   0.0000   0.0000   0.0000  -0.1524
  -7.750  -0.2914   0.01294   0.00695  -0.1215  0.7625  0.0266  -4.3171   0.0000   0.0000   0.0000  -0.1894
  -7.500  -0.2636   0.01266   0.00663  -0.1216  0.7602  0.0275  -4.1106   0.0000   0.0000   0.0000  -0.2351
  -7.250  -0.2355   0.01240   0.00632  -0.1218  0.7577  0.0285  -3.9080   0.0000   0.0000   0.0000  -0.2924
  -7.000  -0.2071   0.01218   0.00605  -0.1219  0.7550  0.0293  -3.7087   0.0000   0.0000   0.0000  -0.3662
  -6.750  -0.1802   0.01165   0.00550  -0.1220  0.7525  0.0305  -3.5273   0.0000   0.0000   0.0000  -0.4577
  -6.500  -0.1520   0.01140   0.00522  -0.1222  0.7501  0.0317  -3.3485   0.0000   0.0000   0.0000  -0.5884
  -6.250  -0.1235   0.01118   0.00496  -0.1224  0.7477  0.0330  -3.1741   0.0000   0.0000   0.0000  -0.7806
  -6.000  -0.0955   0.01085   0.00460  -0.1226  0.7449  0.0345  -3.0070   0.0000   0.0000   0.0000  -1.0831
  -5.750  -0.0671   0.01061   0.00435  -0.1228  0.7422  0.0362  -2.8360   0.0000   0.0000   0.0000  -1.6469
  -5.500  -0.0383   0.01045   0.00414  -0.1230  0.7398  0.0381  -2.6744   0.0000   0.0000   0.0000  -3.0677
  -5.250  -0.0100   0.01016   0.00385  -0.1232  0.7372  0.0403  -2.5263   0.0000   0.0000   0.0000  -12.4159
  -5.000   0.0188   0.00998   0.00366  -0.1234  0.7345  0.0426  -2.3768   0.0000   0.0000   0.0000   7.0302
  -4.750   0.0473   0.00975   0.00342  -0.1236  0.7319  0.0455  -2.2318   0.0000   0.0000   0.0000   2.9353
  -4.250   0.1050   0.00942   0.00307  -0.1241  0.7271  0.0530  -1.9454   0.0000   0.0000   0.0000   1.4612
  -4.000   0.1338   0.00923   0.00291  -0.1243  0.7244  0.0586  -1.8066   0.0000   0.0000   0.0000   1.2006
  -3.750   0.1627   0.00905   0.00275  -0.1246  0.7217  0.0663  -1.6782   0.0000   0.0000   0.0000   1.0321
  -3.250   0.2203   0.00870   0.00250  -0.1251  0.7168  0.0960  -1.4331   0.0000   0.0000   0.0000   0.8280
  -2.750   0.2780   0.00837   0.00231  -0.1257  0.7109  0.1372  -1.1961   0.0000   0.0000   0.0000   0.7085
  -2.500   0.3069   0.00825   0.00223  -0.1259  0.7082  0.1597  -1.0812   0.0000   0.0000   0.0000   0.6654
  -2.250   0.3357   0.00808   0.00216  -0.1262  0.7050  0.1869  -0.9765   0.0000   0.0000   0.0000   0.6300
  -2.000   0.3646   0.00792   0.00210  -0.1265  0.7018  0.2181  -0.8754   0.0000   0.0000   0.0000   0.6001
  -1.750   0.3933   0.00776   0.00204  -0.1268  0.6991  0.2579  -0.7774   0.0000   0.0000   0.0000   0.5747
  -1.500   0.4221   0.00760   0.00202  -0.1271  0.6963  0.3059  -0.7933   0.0000   0.0000   0.0000   0.5527
  -1.250   0.4508   0.00744   0.00200  -0.1274  0.6927  0.3516  -0.8099   0.0000   0.0000   0.0000   0.5335
  -1.000   0.4795   0.00730   0.00197  -0.1277  0.6892  0.3977  -0.8266   0.0000   0.0000   0.0000   0.5166
  -0.750   0.5081   0.00716   0.00196  -0.1279  0.6857  0.4500  -0.8441   0.0000   0.0000   0.0000   0.5015
  -0.500   0.5366   0.00701   0.00197  -0.1281  0.6816  0.5031  -0.8640   0.0000   0.0000   0.0000   0.4881
  -0.250   0.5652   0.00690   0.00198  -0.1283  0.6782  0.5548  -0.8841   0.0000   0.0000   0.0000   0.4759
   0.000   0.5937   0.00680   0.00200  -0.1285  0.6745  0.6041  -0.9041   0.0000   0.0000   0.0000   0.4649
   0.250   0.6221   0.00671   0.00204  -0.1287  0.6704  0.6499  -0.9241   0.0000   0.0000   0.0000   0.4548
   0.500   0.6505   0.00668   0.00206  -0.1288  0.6667  0.6892  -0.9463   0.0000   0.0000   0.0000   0.4456
   0.750   0.6788   0.00662   0.00210  -0.1289  0.6624  0.7229  -0.9698   0.0000   0.0000   0.0000   0.4371
   1.000   0.7069   0.00658   0.00213  -0.1289  0.6581  0.7535  -0.9933   0.0000   0.0000   0.0000   0.4293
   1.250   0.7347   0.00654   0.00217  -0.1289  0.6537  0.7846  -1.0168   0.0000   0.0000   0.0000   0.4220
   1.500   0.7619   0.00647   0.00221  -0.1287  0.6489  0.8230  -1.0399   0.0000   0.0000   0.0000   0.4151
   2.000   0.8111   0.00629   0.00231  -0.1269  0.6395  0.9446  -1.0894   0.0000   0.0000   0.0000   0.4020
   2.250   0.8497   0.00630   0.00229  -0.1292  0.6342  1.0001  -1.1242   0.0000   0.0000   0.0000   0.3973
   2.500   0.8780   0.00635   0.00234  -0.1294  0.6281  1.0001  -1.1533   0.0000   0.0000   0.0000   0.3923
   2.750   0.9060   0.00643   0.00238  -0.1295  0.6228  1.0001  -1.1824   0.0000   0.0000   0.0000   0.3875
   3.000   0.9343   0.00649   0.00243  -0.1297  0.6167  1.0001  -1.2128   0.0000   0.0000   0.0000   0.3831
   3.250   0.9622   0.00657   0.00249  -0.1298  0.6110  1.0001  -1.2468   0.0000   0.0000   0.0000   0.3788
   3.500   0.9900   0.00666   0.00256  -0.1299  0.6042  1.0001  -1.2814   0.0000   0.0000   0.0000   0.3748
   3.750   1.0177   0.00675   0.00263  -0.1299  0.5971  1.0001  -1.3166   0.0000   0.0000   0.0000   0.3710
   4.000   1.0449   0.00687   0.00272  -0.1299  0.5894  1.0001  -1.3517   0.0000   0.0000   0.0000   0.3673
   4.250   1.0718   0.00700   0.00281  -0.1298  0.5811  1.0001  -1.3867   0.0000   0.0000   0.0000   0.3638
   4.500   1.0988   0.00712   0.00292  -0.1298  0.5718  1.0001  -1.4297   0.0000   0.0000   0.0000   0.3605
   4.750   1.1255   0.00726   0.00304  -0.1297  0.5621  1.0001  -1.4738   0.0000   0.0000   0.0000   0.3572
   5.000   1.1519   0.00742   0.00316  -0.1295  0.5517  1.0001  -1.5180   0.0000   0.0000   0.0000   0.3541
   5.250   1.1780   0.00758   0.00331  -0.1293  0.5406  1.0001  -1.5622   0.0000   0.0000   0.0000   0.3511
   5.500   1.2035   0.00777   0.00346  -0.1291  0.5286  1.0001  -1.6062   0.0000   0.0000   0.0000   0.3482
   5.750   1.2284   0.00800   0.00363  -0.1286  0.5159  1.0001  -1.6499   0.0000   0.0000   0.0000   0.3454
   6.000   1.2530   0.00823   0.00383  -0.1282  0.5023  1.0001  -1.7120   0.0000   0.0000   0.0000   0.3426
   6.250   1.2765   0.00851   0.00405  -0.1276  0.4858  1.0001  -1.7748   0.0000   0.0000   0.0000   0.3399
   6.500   1.2979   0.00888   0.00433  -0.1266  0.4636  1.0001  -1.8381   0.0000   0.0000   0.0000   0.3371
   6.750   1.3179   0.00932   0.00465  -0.1254  0.4402  1.0001  -1.9088   0.0000   0.0000   0.0000   0.3344
   7.000   1.3384   0.00972   0.00497  -0.1243  0.4205  1.0001  -1.9871   0.0000   0.0000   0.0000   0.3317
   7.250   1.3584   0.01013   0.00531  -0.1231  0.4021  1.0001  -2.0670   0.0000   0.0000   0.0000   0.3291
   7.500   1.3768   0.01060   0.00569  -0.1217  0.3832  1.0001  -2.1452   0.0000   0.0000   0.0000   0.3265
   7.750   1.3923   0.01112   0.00612  -0.1197  0.3636  1.0001  -2.2235   0.0000   0.0000   0.0000   0.3237
   8.000   1.4064   0.01164   0.00657  -0.1176  0.3445  1.0001  -2.3251   0.0000   0.0000   0.0000   0.3209
   8.250   1.4210   0.01220   0.00705  -0.1156  0.3262  1.0001  -2.4291   0.0000   0.0000   0.0000   0.3182
   8.500   1.4343   0.01285   0.00762  -0.1135  0.3084  1.0001  -2.5313   0.0000   0.0000   0.0000   0.3156
   8.750   1.4465   0.01359   0.00829  -0.1113  0.2914  1.0001  -2.6318   0.0000   0.0000   0.0000   0.3131
   9.000   1.4594   0.01435   0.00898  -0.1094  0.2735  1.0001  -2.7355   0.0000   0.0000   0.0000   0.3107
   9.250   1.4714   0.01519   0.00975  -0.1075  0.2552  1.0001  -2.8425   0.0000   0.0000   0.0000   0.3083
   9.500   1.4822   0.01615   0.01063  -0.1056  0.2383  1.0001  -2.9492   0.0000   0.0000   0.0000   0.3060
   9.750   1.4928   0.01717   0.01158  -0.1037  0.2231  1.0001  -3.0563   0.0000   0.0000   0.0000   0.3038
  10.000   1.5044   0.01817   0.01251  -0.1020  0.2075  1.0001  -3.1674   0.0000   0.0000   0.0000   0.3017
  10.250   1.5147   0.01927   0.01355  -0.1002  0.1919  1.0001  -3.2761   0.0000   0.0000   0.0000   0.2997
  10.500   1.5239   0.02046   0.01468  -0.0984  0.1789  1.0001  -3.3826   0.0000   0.0000   0.0000   0.2976
  10.750   1.5343   0.02161   0.01579  -0.0968  0.1667  1.0001  -3.4938   0.0000   0.0000   0.0000   0.2957
  11.000   1.5440   0.02282   0.01695  -0.0952  0.1538  1.0001  -3.6037   0.0000   0.0000   0.0000   0.2937
  11.250   1.5521   0.02414   0.01822  -0.0935  0.1410  1.0001  -3.7100   0.0000   0.0000   0.0000   0.2918
  11.500   1.5602   0.02549   0.01953  -0.0918  0.1304  1.0001  -3.8172   0.0000   0.0000   0.0000   0.2900
  11.750   1.5682   0.02686   0.02087  -0.0901  0.1206  1.0001  -3.9246   0.0000   0.0000   0.0000   0.2881
  12.000   1.5751   0.02832   0.02230  -0.0884  0.1107  1.0001  -4.0296   0.0000   0.0000   0.0000   0.2863
  12.250   1.5820   0.02981   0.02375  -0.0868  0.1000  1.0001  -4.1353   0.0000   0.0000   0.0000   0.2845
  12.500   1.5874   0.03143   0.02533  -0.0851  0.0904  1.0001  -4.2367   0.0000   0.0000   0.0000   0.2828
  12.750   1.5932   0.03305   0.02693  -0.0835  0.0825  1.0001  -4.3400   0.0000   0.0000   0.0000   0.2811
  13.000   1.5993   0.03470   0.02857  -0.0821  0.0759  1.0001  -4.4450   0.0000   0.0000   0.0000   0.2794
  13.250   1.6057   0.03636   0.03024  -0.0807  0.0702  1.0001  -4.5515   0.0000   0.0000   0.0000   0.2779
  13.500   1.6121   0.03807   0.03195  -0.0794  0.0651  1.0001  -4.6635   0.0000   0.0000   0.0000   0.2763
  13.750   1.6181   0.03983   0.03372  -0.0781  0.0606  1.0001  -4.7770   0.0000   0.0000   0.0000   0.2748
  14.000   1.6236   0.04167   0.03557  -0.0769  0.0564  1.0001  -4.8893   0.0000   0.0000   0.0000   0.2734
  14.250   1.6293   0.04353   0.03745  -0.0758  0.0526  1.0001  -5.0032   0.0000   0.0000   0.0000   0.2720
  14.500   1.6354   0.04539   0.03934  -0.0747  0.0490  1.0001  -5.1191   0.0000   0.0000   0.0000   0.2706
  14.750   1.6405   0.04739   0.04135  -0.0737  0.0457  1.0001  -5.2316   0.0000   0.0000   0.0000   0.2693
  15.000   1.6440   0.04954   0.04353  -0.0726  0.0425  1.0001  -5.3383   0.0000   0.0000   0.0000   0.2680
  15.250   1.6487   0.05162   0.04565  -0.0717  0.0396  1.0001  -5.4500   0.0000   0.0000   0.0000   0.2667
  15.500   1.6521   0.05388   0.04794  -0.0708  0.0369  1.0001  -5.5562   0.0000   0.0000   0.0000   0.2655
  15.750   1.6537   0.05636   0.05044  -0.0699  0.0343  1.0001  -5.6624   0.0000   0.0000   0.0000   0.2644
  16.000   1.6569   0.05872   0.05285  -0.0692  0.0319  1.0001  -5.7837   0.0000   0.0000   0.0000   0.2633
  16.250   1.6574   0.06140   0.05557  -0.0685  0.0298  1.0001  -5.8925   0.0000   0.0000   0.0000   0.2622
  16.500   1.6588   0.06400   0.05822  -0.0678  0.0279  1.0001  -6.0059   0.0000   0.0000   0.0000   0.2612
  16.750   1.6576   0.06696   0.06122  -0.0672  0.0263  1.0001  -6.1063   0.0000   0.0000   0.0000   0.2602
  17.000   1.6587   0.06969   0.06402  -0.0667  0.0249  1.0001  -6.2186   0.0000   0.0000   0.0000   0.2593
  17.250   1.6570   0.07281   0.06719  -0.0663  0.0238  1.0001  -6.3173   0.0000   0.0000   0.0000   0.2585
  17.500   1.6541   0.07612   0.07057  -0.0660  0.0229  1.0001  -6.4155   0.0000   0.0000   0.0000   0.2577
  17.750   1.6541   0.07911   0.07365  -0.0658  0.0221  1.0001  -6.5295   0.0000   0.0000   0.0000   0.2570
  18.000   1.6520   0.08237   0.07697  -0.0656  0.0214  1.0001  -6.6327   0.0000   0.0000   0.0000   0.2563
  18.250   1.6481   0.08590   0.08058  -0.0656  0.0207  1.0001  -6.7263   0.0000   0.0000   0.0000   0.2558
  18.500   1.6411   0.08993   0.08468  -0.0657  0.0201  1.0001  -6.8004   0.0000   0.0000   0.0000   0.2554
  18.750   1.6368   0.09366   0.08850  -0.0660  0.0197  1.0001  -6.8888   0.0000   0.0000   0.0000   0.2550
  19.000   1.6342   0.09719   0.09211  -0.0663  0.0192  1.0001  -6.9871   0.0000   0.0000   0.0000   0.2546
  19.250   1.6304   0.10090   0.09592  -0.0667  0.0188  1.0001  -7.0783   0.0000   0.0000   0.0000   0.2543
  19.500   1.6256   0.10477   0.09987  -0.0673  0.0184  1.0001  -7.1622   0.0000   0.0000   0.0000   0.2541
  19.750   1.6194   0.10886   0.10405  -0.0680  0.0181  1.0001  -7.2376   0.0000   0.0000   0.0000   0.2540
  20.000   1.6120   0.11322   0.10848  -0.0689  0.0177  1.0001  -7.3029   0.0000   0.0000   0.0000   0.2541


