xflr5 v6.61

 Calculated polar for: QX0026

 1 1 Reynolds number fixed          Mach number fixed         

 xtrf =   1.000 (top)        1.000 (bottom)
 Mach =   0.000     Re =     0.200 e 6     Ncrit =   9.000

  alpha     CL        CD       CDp       Cm    Top Xtr Bot Xtr   Cpmin    Chinge    XCp    
 ------- -------- --------- --------- -------- ------- ------- -------- --------- ---------
  -8.750  -0.1353   0.07991   0.07610  -0.0980  0.8845  0.0811  -1.7591   0.0000   0.0000   0.0000  -0.5217
  -8.250  -0.2377   0.04439   0.03987  -0.1321  0.8683  0.0553  -3.1179   0.0000   0.0000   0.0000  -0.3334
  -8.000  -0.2466   0.03646   0.03104  -0.1339  0.8633  0.0526  -3.3696   0.0000   0.0000   0.0000  -0.3195
  -7.750  -0.2358   0.03282   0.02685  -0.1339  0.8586  0.0527  -3.3816   0.0000   0.0000   0.0000  -0.3450
  -7.500  -0.2191   0.02996   0.02344  -0.1336  0.8550  0.0530  -3.3454   0.0000   0.0000   0.0000  -0.3882
  -7.250  -0.2000   0.02788   0.02080  -0.1331  0.8510  0.0538  -3.3002   0.0000   0.0000   0.0000  -0.4462
  -7.000  -0.1764   0.02661   0.01953  -0.1330  0.8474  0.0553  -3.1603   0.0000   0.0000   0.0000  -0.5376
  -6.750  -0.1511   0.02565   0.01841  -0.1328  0.8449  0.0574  -3.0211   0.0000   0.0000   0.0000  -0.6663
  -6.500  -0.1286   0.02456   0.01695  -0.1324  0.8402  0.0593  -2.9253   0.0000   0.0000   0.0000  -0.8221
  -6.250  -0.1030   0.02342   0.01572  -0.1322  0.8373  0.0610  -2.7943   0.0000   0.0000   0.0000  -1.0844
  -6.000  -0.0779   0.02273   0.01496  -0.1320  0.8338  0.0633  -2.6725   0.0000   0.0000   0.0000  -1.5091
  -5.750  -0.0526   0.02201   0.01405  -0.1317  0.8300  0.0663  -2.5599   0.0000   0.0000   0.0000  -2.3427
  -5.500  -0.0256   0.02137   0.01341  -0.1316  0.8275  0.0698  -2.4238   0.0000   0.0000   0.0000  -5.0606
  -5.250  -0.0013   0.02083   0.01280  -0.1312  0.8231  0.0731  -2.3094   0.0000   0.0000   0.0000  -102.6357
  -5.000   0.0252   0.02034   0.01228  -0.1310  0.8199  0.0775  -2.1938   0.0000   0.0000   0.0000   5.6222
  -4.750   0.0527   0.01977   0.01173  -0.1309  0.8176  0.0828  -2.0741   0.0000   0.0000   0.0000   2.8118
  -4.500   0.0760   0.01949   0.01149  -0.1305  0.8126  0.0884  -1.9680   0.0000   0.0000   0.0000   2.0158
  -4.250   0.1032   0.01905   0.01106  -0.1304  0.8098  0.0963  -1.8511   0.0000   0.0000   0.0000   1.5483
  -4.000   0.1294   0.01873   0.01074  -0.1302  0.8066  0.1066  -1.7384   0.0000   0.0000   0.0000   1.2823
  -3.750   0.1540   0.01846   0.01058  -0.1299  0.8023  0.1199  -1.6337   0.0000   0.0000   0.0000   1.1143
  -3.500   0.1818   0.01803   0.01021  -0.1300  0.7997  0.1414  -1.5288   0.0000   0.0000   0.0000   0.9809
  -3.250   0.2064   0.01782   0.01015  -0.1298  0.7956  0.1697  -1.4283   0.0000   0.0000   0.0000   0.8918
  -3.000   0.2324   0.01755   0.01003  -0.1297  0.7919  0.2070  -1.3232   0.0000   0.0000   0.0000   0.8187
  -2.750   0.2608   0.01715   0.00981  -0.1299  0.7896  0.2551  -1.2126   0.0000   0.0000   0.0000   0.7568
  -2.500   0.2842   0.01710   0.01001  -0.1296  0.7847  0.3134  -1.1135   0.0000   0.0000   0.0000   0.7132
  -2.250   0.3111   0.01686   0.00998  -0.1295  0.7815  0.3834  -1.0155   0.0000   0.0000   0.0000   0.6723
  -2.000   0.3396   0.01653   0.00986  -0.1295  0.7794  0.4564  -0.9157   0.0000   0.0000   0.0000   0.6361
  -1.750   0.3614   0.01664   0.01023  -0.1288  0.7738  0.5228  -0.8300   0.0000   0.0000   0.0000   0.6102
  -1.500   0.3885   0.01642   0.01020  -0.1284  0.7709  0.5915  -0.7474   0.0000   0.0000   0.0000   0.5833
  -1.250   0.4135   0.01636   0.01032  -0.1276  0.7675  0.6549  -0.7636   0.0000   0.0000   0.0000   0.5607
  -1.000   0.4362   0.01645   0.01056  -0.1265  0.7627  0.7109  -0.7789   0.0000   0.0000   0.0000   0.5415
  -0.750   0.4626   0.01626   0.01045  -0.1256  0.7602  0.7619  -0.7977   0.0000   0.0000   0.0000   0.5223
  -0.500   0.4818   0.01643   0.01077  -0.1237  0.7551  0.8092  -0.8114   0.0000   0.0000   0.0000   0.5072
  -0.250   0.5037   0.01633   0.01076  -0.1218  0.7517  0.8628  -0.8277   0.0000   0.0000   0.0000   0.4917
   0.000   0.5344   0.01608   0.01053  -0.1214  0.7496  0.9261  -0.8493   0.0000   0.0000   0.0000   0.4766
   0.250   0.5794   0.01626   0.01070  -0.1253  0.7442  1.0001  -0.8778   0.0000   0.0000   0.0000   0.4652
   0.500   0.6095   0.01616   0.01047  -0.1258  0.7409  1.0001  -0.9021   0.0000   0.0000   0.0000   0.4548
   0.750   0.6362   0.01627   0.01050  -0.1258  0.7363  1.0001  -0.9239   0.0000   0.0000   0.0000   0.4457
   1.000   0.6635   0.01634   0.01049  -0.1258  0.7318  1.0001  -0.9464   0.0000   0.0000   0.0000   0.4372
   1.250   0.6953   0.01621   0.01026  -0.1264  0.7293  1.0001  -0.9722   0.0000   0.0000   0.0000   0.4290
   1.750   0.7484   0.01648   0.01044  -0.1262  0.7201  1.0001  -1.0186   0.0000   0.0000   0.0000   0.4151
   2.000   0.7740   0.01664   0.01056  -0.1259  0.7149  1.0001  -1.0443   0.0000   0.0000   0.0000   0.4088
   2.250   0.8037   0.01653   0.01039  -0.1261  0.7105  1.0001  -1.0734   0.0000   0.0000   0.0000   0.4026
   2.500   0.8329   0.01645   0.01027  -0.1262  0.7062  1.0001  -1.1024   0.0000   0.0000   0.0000   0.3969
   2.750   0.8593   0.01653   0.01034  -0.1260  0.7008  1.0001  -1.1298   0.0000   0.0000   0.0000   0.3917
   3.000   0.8920   0.01633   0.01007  -0.1267  0.6981  1.0001  -1.1634   0.0000   0.0000   0.0000   0.3867
   3.250   0.9145   0.01660   0.01037  -0.1259  0.6912  1.0001  -1.1924   0.0000   0.0000   0.0000   0.3820
   3.500   0.9477   0.01631   0.01001  -0.1266  0.6879  1.0001  -1.2308   0.0000   0.0000   0.0000   0.3775
   3.750   0.9712   0.01646   0.01019  -0.1259  0.6806  1.0001  -1.2616   0.0000   0.0000   0.0000   0.3733
   4.000   1.0049   0.01613   0.00979  -0.1266  0.6770  1.0001  -1.3022   0.0000   0.0000   0.0000   0.3693
   4.250   1.0279   0.01629   0.01000  -0.1258  0.6694  1.0001  -1.3335   0.0000   0.0000   0.0000   0.3654
   4.500   1.0568   0.01619   0.00988  -0.1258  0.6639  1.0001  -1.3751   0.0000   0.0000   0.0000   0.3617
   4.750   1.0847   0.01611   0.00981  -0.1257  0.6576  1.0001  -1.4188   0.0000   0.0000   0.0000   0.3582
   5.000   1.1101   0.01614   0.00986  -0.1253  0.6503  1.0001  -1.4616   0.0000   0.0000   0.0000   0.3548
   5.250   1.1425   0.01587   0.00953  -0.1258  0.6451  1.0001  -1.5119   0.0000   0.0000   0.0000   0.3517
   5.500   1.1658   0.01595   0.00967  -0.1250  0.6364  1.0001  -1.5533   0.0000   0.0000   0.0000   0.3484
   5.750   1.1905   0.01599   0.00975  -0.1244  0.6283  1.0001  -1.5963   0.0000   0.0000   0.0000   0.3454
   6.000   1.2170   0.01597   0.00973  -0.1241  0.6205  1.0001  -1.6499   0.0000   0.0000   0.0000   0.3425
   6.250   1.2441   0.01587   0.00964  -0.1238  0.6119  1.0001  -1.7170   0.0000   0.0000   0.0000   0.3396
   6.500   1.2691   0.01583   0.00960  -0.1232  0.6018  1.0001  -1.7832   0.0000   0.0000   0.0000   0.3368
   6.750   1.2928   0.01586   0.00964  -0.1223  0.5909  1.0001  -1.8515   0.0000   0.0000   0.0000   0.3340
   7.000   1.3158   0.01596   0.00977  -0.1214  0.5797  1.0001  -1.9296   0.0000   0.0000   0.0000   0.3313
   7.250   1.3376   0.01612   0.00995  -0.1204  0.5678  1.0001  -2.0086   0.0000   0.0000   0.0000   0.3286
   7.500   1.3583   0.01632   0.01018  -0.1192  0.5550  1.0001  -2.0899   0.0000   0.0000   0.0000   0.3260
   7.750   1.3783   0.01654   0.01042  -0.1178  0.5411  1.0001  -2.1711   0.0000   0.0000   0.0000   0.3233
   8.000   1.3978   0.01676   0.01059  -0.1163  0.5257  1.0001  -2.2680   0.0000   0.0000   0.0000   0.3207
   8.250   1.4127   0.01710   0.01093  -0.1142  0.5076  1.0001  -2.3719   0.0000   0.0000   0.0000   0.3179
   8.500   1.4267   0.01752   0.01131  -0.1119  0.4895  1.0001  -2.4748   0.0000   0.0000   0.0000   0.3150
   8.750   1.4381   0.01801   0.01173  -0.1092  0.4721  1.0001  -2.5729   0.0000   0.0000   0.0000   0.3121
   9.000   1.4468   0.01863   0.01233  -0.1062  0.4541  1.0001  -2.6649   0.0000   0.0000   0.0000   0.3092
   9.250   1.4559   0.01935   0.01300  -0.1035  0.4366  1.0001  -2.7587   0.0000   0.0000   0.0000   0.3064
   9.500   1.4635   0.02019   0.01378  -0.1007  0.4187  1.0001  -2.8496   0.0000   0.0000   0.0000   0.3037
   9.750   1.4699   0.02116   0.01472  -0.0979  0.4005  1.0001  -2.9376   0.0000   0.0000   0.0000   0.3011
  10.000   1.4756   0.02224   0.01574  -0.0953  0.3827  1.0001  -3.0296   0.0000   0.0000   0.0000   0.2986
  10.250   1.4807   0.02343   0.01688  -0.0927  0.3652  1.0001  -3.1207   0.0000   0.0000   0.0000   0.2962
  10.500   1.4856   0.02471   0.01813  -0.0903  0.3479  1.0001  -3.2114   0.0000   0.0000   0.0000   0.2939
  10.750   1.4898   0.02609   0.01946  -0.0879  0.3314  1.0001  -3.3010   0.0000   0.0000   0.0000   0.2916
  11.000   1.4937   0.02755   0.02091  -0.0856  0.3147  1.0001  -3.3898   0.0000   0.0000   0.0000   0.2895
  11.250   1.4970   0.02911   0.02242  -0.0834  0.2991  1.0001  -3.4774   0.0000   0.0000   0.0000   0.2874
  11.500   1.4999   0.03076   0.02404  -0.0813  0.2836  1.0001  -3.5639   0.0000   0.0000   0.0000   0.2854
  11.750   1.5027   0.03246   0.02573  -0.0793  0.2681  1.0001  -3.6505   0.0000   0.0000   0.0000   0.2834
  12.000   1.5040   0.03430   0.02754  -0.0773  0.2533  1.0001  -3.7328   0.0000   0.0000   0.0000   0.2815
  12.500   1.5047   0.03832   0.03149  -0.0734  0.2243  1.0001  -3.8915   0.0000   0.0000   0.0000   0.2779
  12.750   1.5056   0.04042   0.03360  -0.0718  0.2089  1.0001  -3.9721   0.0000   0.0000   0.0000   0.2763
  13.000   1.5053   0.04269   0.03585  -0.0702  0.1945  1.0001  -4.0490   0.0000   0.0000   0.0000   0.2747
  13.250   1.5036   0.04517   0.03827  -0.0686  0.1813  1.0001  -4.1210   0.0000   0.0000   0.0000   0.2732
  13.500   1.5030   0.04762   0.04071  -0.0672  0.1680  1.0001  -4.1959   0.0000   0.0000   0.0000   0.2717
  13.750   1.5013   0.05025   0.04332  -0.0659  0.1558  1.0001  -4.2668   0.0000   0.0000   0.0000   0.2704
  14.000   1.5007   0.05286   0.04595  -0.0648  0.1437  1.0001  -4.3422   0.0000   0.0000   0.0000   0.2691
  14.250   1.4980   0.05575   0.04880  -0.0637  0.1336  1.0001  -4.4135   0.0000   0.0000   0.0000   0.2679
  14.500   1.4954   0.05867   0.05170  -0.0627  0.1244  1.0001  -4.4842   0.0000   0.0000   0.0000   0.2667
  14.750   1.4938   0.06156   0.05461  -0.0618  0.1155  1.0001  -4.5574   0.0000   0.0000   0.0000   0.2656
  15.000   1.4919   0.06454   0.05762  -0.0610  0.1076  1.0001  -4.6292   0.0000   0.0000   0.0000   0.2646
  15.250   1.4899   0.06760   0.06070  -0.0604  0.1005  1.0001  -4.6999   0.0000   0.0000   0.0000   0.2637
  15.500   1.4877   0.07074   0.06387  -0.0599  0.0942  1.0001  -4.7686   0.0000   0.0000   0.0000   0.2628
  15.750   1.4850   0.07397   0.06711  -0.0594  0.0886  1.0001  -4.8346   0.0000   0.0000   0.0000   0.2620
  16.000   1.4819   0.07726   0.07041  -0.0590  0.0837  1.0001  -4.8978   0.0000   0.0000   0.0000   0.2612
  16.250   1.4789   0.08056   0.07371  -0.0586  0.0793  1.0001  -4.9616   0.0000   0.0000   0.0000   0.2605
  16.500   1.4772   0.08380   0.07702  -0.0584  0.0747  1.0001  -5.0335   0.0000   0.0000   0.0000   0.2598
  16.750   1.4752   0.08706   0.08033  -0.0582  0.0708  1.0001  -5.1034   0.0000   0.0000   0.0000   0.2592
  17.000   1.4734   0.09026   0.08350  -0.0581  0.0674  1.0001  -5.1780   0.0000   0.0000   0.0000   0.2585
  17.250   1.4721   0.09358   0.08693  -0.0581  0.0637  1.0001  -5.2543   0.0000   0.0000   0.0000   0.2580
  17.500   1.4709   0.09675   0.09014  -0.0581  0.0606  1.0001  -5.3328   0.0000   0.0000   0.0000   0.2575
  17.750   1.4704   0.09987   0.09328  -0.0583  0.0577  1.0001  -5.4157   0.0000   0.0000   0.0000   0.2570
  18.000   1.4699   0.10306   0.09656  -0.0584  0.0550  1.0001  -5.4928   0.0000   0.0000   0.0000   0.2565
  18.250   1.4713   0.10589   0.09939  -0.0586  0.0527  1.0001  -5.5845   0.0000   0.0000   0.0000   0.2560
  18.500   1.4726   0.10878   0.10237  -0.0587  0.0505  1.0001  -5.6679   0.0000   0.0000   0.0000   0.2554
  18.750   1.4745   0.11159   0.10525  -0.0590  0.0486  1.0001  -5.7616   0.0000   0.0000   0.0000   0.2549
  19.000   1.4818   0.11329   0.10689  -0.0587  0.0468  1.0001  -5.8937   0.0000   0.0000   0.0000   0.2539
  19.250   1.4806   0.11675   0.11054  -0.0594  0.0453  1.0001  -5.9658   0.0000   0.0000   0.0000   0.2538
  19.500   1.4840   0.11932   0.11316  -0.0597  0.0438  1.0001  -6.0731   0.0000   0.0000   0.0000   0.2533
  19.750   1.4945   0.12042   0.11417  -0.0592  0.0424  1.0001  -6.2278   0.0000   0.0000   0.0000   0.2520
  20.000   1.4904   0.12448   0.11847  -0.0605  0.0413  1.0001  -6.2788   0.0000   0.0000   0.0000   0.2524


