xflr5 v6.61

 Calculated polar for: QX0126

 1 1 Reynolds number fixed          Mach number fixed         

 xtrf =   1.000 (top)        1.000 (bottom)
 Mach =   0.000     Re =     0.740 e 6     Ncrit =   9.000

  alpha     CL        CD       CDp       Cm    Top Xtr Bot Xtr   Cpmin    Chinge    XCp    
 ------- -------- --------- --------- -------- ------- ------- -------- --------- ---------
 -10.000  -0.7132   0.01852   0.01315  -0.0810  0.8607  0.0238  -6.3132   0.0000   0.0000   0.0000   0.1233
  -9.750  -0.6878   0.01802   0.01261  -0.0809  0.8570  0.0244  -6.0745   0.0000   0.0000   0.0000   0.1194
  -9.500  -0.6620   0.01757   0.01210  -0.0808  0.8539  0.0250  -5.8387   0.0000   0.0000   0.0000   0.1151
  -9.250  -0.6358   0.01707   0.01154  -0.0808  0.8501  0.0257  -5.6101   0.0000   0.0000   0.0000   0.1102
  -9.000  -0.6098   0.01656   0.01093  -0.0806  0.8470  0.0263  -5.3892   0.0000   0.0000   0.0000   0.1051
  -8.750  -0.5833   0.01609   0.01038  -0.0806  0.8437  0.0268  -5.1687   0.0000   0.0000   0.0000   0.0993
  -8.500  -0.5562   0.01574   0.00994  -0.0805  0.8401  0.0273  -4.9452   0.0000   0.0000   0.0000   0.0927
  -8.250  -0.5321   0.01475   0.00888  -0.0803  0.8370  0.0284  -4.7550   0.0000   0.0000   0.0000   0.0866
  -8.000  -0.5051   0.01432   0.00843  -0.0803  0.8332  0.0292  -4.5477   0.0000   0.0000   0.0000   0.0785
  -7.750  -0.4779   0.01394   0.00800  -0.0803  0.8297  0.0300  -4.3446   0.0000   0.0000   0.0000   0.0696
  -7.500  -0.4507   0.01358   0.00758  -0.0802  0.8266  0.0309  -4.1462   0.0000   0.0000   0.0000   0.0594
  -7.250  -0.4228   0.01326   0.00721  -0.0802  0.8228  0.0319  -3.9482   0.0000   0.0000   0.0000   0.0476
  -7.000  -0.3957   0.01285   0.00672  -0.0802  0.8195  0.0329  -3.7622   0.0000   0.0000   0.0000   0.0346
  -6.750  -0.3688   0.01229   0.00615  -0.0801  0.8158  0.0344  -3.5900   0.0000   0.0000   0.0000   0.0196
  -6.500  -0.3409   0.01198   0.00582  -0.0802  0.8123  0.0359  -3.4108   0.0000   0.0000   0.0000   0.0015
  -6.250  -0.3129   0.01172   0.00549  -0.0802  0.8094  0.0375  -3.2388   0.0000   0.0000   0.0000  -0.0198
  -6.000  -0.2851   0.01132   0.00507  -0.0802  0.8054  0.0396  -3.0828   0.0000   0.0000   0.0000  -0.0455
  -5.750  -0.2571   0.01101   0.00475  -0.0802  0.8019  0.0423  -2.9221   0.0000   0.0000   0.0000  -0.0768
  -5.500  -0.2286   0.01081   0.00451  -0.0803  0.7981  0.0448  -2.7626   0.0000   0.0000   0.0000  -0.1167
  -5.250  -0.2006   0.01046   0.00417  -0.0803  0.7942  0.0483  -2.6144   0.0000   0.0000   0.0000  -0.1670
  -5.000  -0.1721   0.01029   0.00396  -0.0804  0.7910  0.0515  -2.4687   0.0000   0.0000   0.0000  -0.2353
  -4.750  -0.1437   0.01001   0.00369  -0.0805  0.7868  0.0555  -2.3274   0.0000   0.0000   0.0000  -0.3306
  -4.500  -0.1151   0.00984   0.00349  -0.0805  0.7832  0.0596  -2.1856   0.0000   0.0000   0.0000  -0.4736
  -4.250  -0.0865   0.00959   0.00328  -0.0806  0.7791  0.0657  -2.0477   0.0000   0.0000   0.0000  -0.7116
  -4.000  -0.0579   0.00938   0.00308  -0.0807  0.7752  0.0734  -1.9116   0.0000   0.0000   0.0000  -1.1846
  -3.750  -0.0292   0.00920   0.00293  -0.0808  0.7711  0.0835  -1.7861   0.0000   0.0000   0.0000  -2.5937
  -3.500  -0.0004   0.00903   0.00277  -0.0809  0.7666  0.0945  -1.6626   0.0000   0.0000   0.0000  -184.8655
  -3.250   0.0282   0.00883   0.00262  -0.0811  0.7621  0.1072  -1.5413   0.0000   0.0000   0.0000   3.1888
  -3.000   0.0569   0.00865   0.00250  -0.0812  0.7575  0.1233  -1.4216   0.0000   0.0000   0.0000   1.7044
  -2.750   0.0857   0.00849   0.00238  -0.0813  0.7531  0.1405  -1.3046   0.0000   0.0000   0.0000   1.2155
  -2.500   0.1145   0.00831   0.00227  -0.0815  0.7484  0.1607  -1.1903   0.0000   0.0000   0.0000   0.9728
  -2.250   0.1432   0.00813   0.00218  -0.0816  0.7435  0.1874  -1.0790   0.0000   0.0000   0.0000   0.8275
  -2.000   0.1719   0.00797   0.00208  -0.0818  0.7384  0.2148  -0.9774   0.0000   0.0000   0.0000   0.7308
  -1.750   0.2007   0.00780   0.00201  -0.0819  0.7326  0.2458  -0.8779   0.0000   0.0000   0.0000   0.6618
  -1.500   0.2294   0.00763   0.00193  -0.0821  0.7276  0.2799  -0.7810   0.0000   0.0000   0.0000   0.6101
  -1.250   0.2580   0.00745   0.00188  -0.0822  0.7216  0.3238  -0.7032   0.0000   0.0000   0.0000   0.5701
  -1.000   0.2865   0.00724   0.00183  -0.0824  0.7156  0.3762  -0.6421   0.0000   0.0000   0.0000   0.5381
  -0.750   0.3146   0.00697   0.00179  -0.0825  0.7099  0.4558  -0.6621   0.0000   0.0000   0.0000   0.5122
  -0.500   0.3426   0.00669   0.00178  -0.0826  0.7034  0.5452  -0.6826   0.0000   0.0000   0.0000   0.4904
  -0.250   0.3706   0.00649   0.00178  -0.0826  0.6963  0.6148  -0.7050   0.0000   0.0000   0.0000   0.4716
   0.000   0.3984   0.00634   0.00180  -0.0824  0.6888  0.6811  -0.7305   0.0000   0.0000   0.0000   0.4553
   0.250   0.4263   0.00625   0.00181  -0.0823  0.6806  0.7261  -0.7564   0.0000   0.0000   0.0000   0.4410
   0.500   0.4541   0.00620   0.00183  -0.0821  0.6719  0.7625  -0.7830   0.0000   0.0000   0.0000   0.4284
   0.750   0.4818   0.00616   0.00185  -0.0819  0.6629  0.7957  -0.8096   0.0000   0.0000   0.0000   0.4172
   1.000   0.5089   0.00612   0.00189  -0.0815  0.6545  0.8310  -0.8362   0.0000   0.0000   0.0000   0.4071
   1.250   0.5352   0.00609   0.00193  -0.0809  0.6459  0.8656  -0.8640   0.0000   0.0000   0.0000   0.3978
   1.500   0.5610   0.00608   0.00197  -0.0802  0.6364  0.8978  -0.8916   0.0000   0.0000   0.0000   0.3893
   1.750   0.5860   0.00608   0.00200  -0.0792  0.6260  0.9309  -0.9222   0.0000   0.0000   0.0000   0.3813
   2.000   0.6157   0.00611   0.00202  -0.0794  0.6142  0.9641  -0.9590   0.0000   0.0000   0.0000   0.3747
   2.250   0.6539   0.00618   0.00203  -0.0815  0.6010  0.9903  -1.0028   0.0000   0.0000   0.0000   0.3703
   2.500   0.6866   0.00629   0.00207  -0.0826  0.5868  1.0000  -1.0440   0.0000   0.0000   0.0000   0.3656
   2.750   0.7139   0.00642   0.00213  -0.0825  0.5737  1.0000  -1.0817   0.0000   0.0000   0.0000   0.3606
   3.000   0.7414   0.00655   0.00221  -0.0825  0.5606  1.0000  -1.1209   0.0000   0.0000   0.0000   0.3560
   3.250   0.7687   0.00671   0.00229  -0.0824  0.5474  1.0000  -1.1619   0.0000   0.0000   0.0000   0.3517
   3.500   0.7961   0.00686   0.00239  -0.0823  0.5336  1.0000  -1.2081   0.0000   0.0000   0.0000   0.3476
   3.750   0.8232   0.00704   0.00250  -0.0822  0.5195  1.0000  -1.2544   0.0000   0.0000   0.0000   0.3439
   4.000   0.8503   0.00722   0.00262  -0.0821  0.5041  1.0000  -1.3010   0.0000   0.0000   0.0000   0.3403
   4.250   0.8772   0.00742   0.00275  -0.0820  0.4874  1.0000  -1.3516   0.0000   0.0000   0.0000   0.3369
   4.500   0.9039   0.00763   0.00289  -0.0819  0.4713  1.0000  -1.4052   0.0000   0.0000   0.0000   0.3337
   4.750   0.9305   0.00786   0.00305  -0.0817  0.4558  1.0000  -1.4616   0.0000   0.0000   0.0000   0.3307
   5.000   0.9569   0.00810   0.00322  -0.0815  0.4390  1.0000  -1.5244   0.0000   0.0000   0.0000   0.3278
   5.250   0.9831   0.00835   0.00340  -0.0813  0.4214  1.0000  -1.5896   0.0000   0.0000   0.0000   0.3250
   5.500   1.0091   0.00862   0.00359  -0.0811  0.4040  1.0000  -1.6575   0.0000   0.0000   0.0000   0.3224
   5.750   1.0347   0.00891   0.00380  -0.0808  0.3858  1.0000  -1.7257   0.0000   0.0000   0.0000   0.3198
   6.000   1.0600   0.00922   0.00404  -0.0805  0.3671  1.0000  -1.7964   0.0000   0.0000   0.0000   0.3174
   6.250   1.0850   0.00955   0.00428  -0.0802  0.3483  1.0000  -1.8761   0.0000   0.0000   0.0000   0.3150
   6.500   1.1098   0.00988   0.00454  -0.0798  0.3303  1.0000  -1.9787   0.0000   0.0000   0.0000   0.3127
   6.750   1.1340   0.01026   0.00482  -0.0794  0.3112  1.0000  -2.0815   0.0000   0.0000   0.0000   0.3104
   7.000   1.1579   0.01065   0.00512  -0.0789  0.2919  1.0000  -2.1854   0.0000   0.0000   0.0000   0.3083
   7.250   1.1815   0.01104   0.00544  -0.0784  0.2744  1.0000  -2.2903   0.0000   0.0000   0.0000   0.3061
   7.500   1.2049   0.01145   0.00577  -0.0778  0.2577  1.0000  -2.4015   0.0000   0.0000   0.0000   0.3041
   7.750   1.2274   0.01190   0.00613  -0.0772  0.2396  1.0000  -2.5263   0.0000   0.0000   0.0000   0.3020
   8.000   1.2494   0.01237   0.00651  -0.0765  0.2222  1.0000  -2.6519   0.0000   0.0000   0.0000   0.3000
   8.250   1.2711   0.01284   0.00690  -0.0757  0.2054  1.0000  -2.7787   0.0000   0.0000   0.0000   0.2980
   8.500   1.2922   0.01333   0.00731  -0.0749  0.1896  1.0000  -2.9059   0.0000   0.0000   0.0000   0.2960
   9.000   1.3331   0.01432   0.00819  -0.0731  0.1644  1.0000  -3.1623   0.0000   0.0000   0.0000   0.2921
   9.250   1.3524   0.01483   0.00866  -0.0719  0.1537  1.0000  -3.2898   0.0000   0.0000   0.0000   0.2901
   9.500   1.3696   0.01536   0.00915  -0.0705  0.1440  1.0000  -3.4135   0.0000   0.0000   0.0000   0.2880
   9.750   1.3866   0.01593   0.00970  -0.0691  0.1344  1.0000  -3.5376   0.0000   0.0000   0.0000   0.2860
  10.000   1.4029   0.01656   0.01029  -0.0677  0.1249  1.0000  -3.6613   0.0000   0.0000   0.0000   0.2841
  10.250   1.4187   0.01725   0.01094  -0.0664  0.1158  1.0000  -3.7845   0.0000   0.0000   0.0000   0.2822
  11.000   1.4631   0.01960   0.01323  -0.0624  0.0918  1.0000  -4.1524   0.0000   0.0000   0.0000   0.2767
  11.250   1.4777   0.02044   0.01406  -0.0611  0.0852  1.0000  -4.2765   0.0000   0.0000   0.0000   0.2751
  11.500   1.4914   0.02135   0.01497  -0.0599  0.0791  1.0000  -4.3984   0.0000   0.0000   0.0000   0.2734
  11.750   1.5040   0.02235   0.01596  -0.0586  0.0735  1.0000  -4.5179   0.0000   0.0000   0.0000   0.2717
  12.000   1.5162   0.02340   0.01701  -0.0573  0.0680  1.0000  -4.6367   0.0000   0.0000   0.0000   0.2701
  12.250   1.5286   0.02445   0.01807  -0.0560  0.0631  1.0000  -4.7573   0.0000   0.0000   0.0000   0.2686
  12.500   1.5390   0.02567   0.01929  -0.0547  0.0585  1.0000  -4.8775   0.0000   0.0000   0.0000   0.2670
  12.750   1.5495   0.02688   0.02052  -0.0535  0.0543  1.0000  -4.9990   0.0000   0.0000   0.0000   0.2655
  13.000   1.5591   0.02820   0.02186  -0.0522  0.0506  1.0000  -5.1169   0.0000   0.0000   0.0000   0.2639
  13.250   1.5678   0.02961   0.02329  -0.0510  0.0472  1.0000  -5.2327   0.0000   0.0000   0.0000   0.2625
  13.500   1.5755   0.03112   0.02484  -0.0497  0.0443  1.0000  -5.3440   0.0000   0.0000   0.0000   0.2610
  13.750   1.5837   0.03262   0.02637  -0.0486  0.0417  1.0000  -5.4581   0.0000   0.0000   0.0000   0.2596
  14.000   1.5876   0.03451   0.02828  -0.0473  0.0392  1.0000  -5.5594   0.0000   0.0000   0.0000   0.2582
  14.250   1.5947   0.03616   0.03000  -0.0462  0.0376  1.0000  -5.6804   0.0000   0.0000   0.0000   0.2569
  14.500   1.6004   0.03797   0.03187  -0.0452  0.0360  1.0000  -5.7967   0.0000   0.0000   0.0000   0.2557
  14.750   1.6033   0.04008   0.03402  -0.0442  0.0345  1.0000  -5.9014   0.0000   0.0000   0.0000   0.2545
  15.000   1.6012   0.04278   0.03678  -0.0432  0.0330  1.0000  -6.0066   0.0000   0.0000   0.0000   0.2533
  15.250   1.6073   0.04475   0.03883  -0.0425  0.0321  1.0000  -6.1692   0.0000   0.0000   0.0000   0.2522
  15.500   1.6118   0.04692   0.04109  -0.0420  0.0312  1.0000  -6.3244   0.0000   0.0000   0.0000   0.2513
  15.750   1.6144   0.04935   0.04359  -0.0415  0.0303  1.0000  -6.4696   0.0000   0.0000   0.0000   0.2504
  16.000   1.6149   0.05210   0.04640  -0.0411  0.0295  1.0000  -6.6026   0.0000   0.0000   0.0000   0.2495
  16.250   1.6126   0.05522   0.04960  -0.0408  0.0287  1.0000  -6.7183   0.0000   0.0000   0.0000   0.2488
  16.500   1.6059   0.05899   0.05345  -0.0407  0.0279  1.0000  -6.8041   0.0000   0.0000   0.0000   0.2483
  16.750   1.6000   0.06275   0.05730  -0.0407  0.0274  1.0000  -6.8940   0.0000   0.0000   0.0000   0.2478
  17.000   1.6001   0.06583   0.06049  -0.0409  0.0270  1.0000  -7.0234   0.0000   0.0000   0.0000   0.2473
  17.250   1.5986   0.06917   0.06393  -0.0412  0.0266  1.0000  -7.1424   0.0000   0.0000   0.0000   0.2469
  17.500   1.5957   0.07274   0.06760  -0.0416  0.0261  1.0000  -7.2522   0.0000   0.0000   0.0000   0.2466
  17.750   1.5918   0.07652   0.07147  -0.0421  0.0257  1.0000  -7.3546   0.0000   0.0000   0.0000   0.2464
  18.000   1.5869   0.08047   0.07552  -0.0428  0.0253  1.0000  -7.4497   0.0000   0.0000   0.0000   0.2463
  18.250   1.5808   0.08465   0.07979  -0.0437  0.0249  1.0000  -7.5358   0.0000   0.0000   0.0000   0.2463
  18.500   1.5734   0.08909   0.08432  -0.0447  0.0246  1.0000  -7.6104   0.0000   0.0000   0.0000   0.2464
  18.750   1.5647   0.09376   0.08908  -0.0459  0.0242  1.0000  -7.6734   0.0000   0.0000   0.0000   0.2468
  19.000   1.5546   0.09872   0.09413  -0.0474  0.0239  1.0000  -7.7229   0.0000   0.0000   0.0000   0.2472
  19.250   1.5431   0.10394   0.09943  -0.0490  0.0235  1.0000  -7.7576   0.0000   0.0000   0.0000   0.2479
  19.500   1.5304   0.10937   0.10496  -0.0509  0.0232  1.0000  -7.7782   0.0000   0.0000   0.0000   0.2488
  19.750   1.5180   0.11481   0.11049  -0.0530  0.0228  1.0000  -7.7947   0.0000   0.0000   0.0000   0.2498
  20.000   1.5139   0.11905   0.11483  -0.0547  0.0227  1.0000  -7.8763   0.0000   0.0000   0.0000   0.2504


