xflr5 v6.61

 Calculated polar for: QX0126

 1 1 Reynolds number fixed          Mach number fixed         

 xtrf =   1.000 (top)        1.000 (bottom)
 Mach =   0.000     Re =     0.220 e 6     Ncrit =   9.000

  alpha     CL        CD       CDp       Cm    Top Xtr Bot Xtr   Cpmin    Chinge    XCp    
 ------- -------- --------- --------- -------- ------- ------- -------- --------- ---------
  -9.500  -0.4419   0.05885   0.05540  -0.0893  0.9752  0.0528  -3.3831   0.0000   0.0000   0.0000   0.0333
  -9.250  -0.4272   0.05545   0.05194  -0.0929  0.9689  0.0533  -3.3085   0.0000   0.0000   0.0000   0.0179
  -9.000  -0.4101   0.05309   0.04953  -0.0955  0.9627  0.0542  -3.2004   0.0000   0.0000   0.0000   0.0026
  -8.750  -0.4540   0.03843   0.03381  -0.1019  0.9476  0.0486  -3.7714   0.0000   0.0000   0.0000   0.0118
  -8.500  -0.4500   0.03354   0.02830  -0.1020  0.9400  0.0485  -3.8372   0.0000   0.0000   0.0000   0.0096
  -8.250  -0.4350   0.03080   0.02512  -0.1017  0.9343  0.0495  -3.7833   0.0000   0.0000   0.0000   0.0024
  -8.000  -0.4182   0.02854   0.02241  -0.1010  0.9283  0.0507  -3.7118   0.0000   0.0000   0.0000  -0.0056
  -7.750  -0.3992   0.02671   0.02012  -0.1003  0.9225  0.0517  -3.6355   0.0000   0.0000   0.0000  -0.0153
  -7.500  -0.3780   0.02486   0.01794  -0.0996  0.9180  0.0528  -3.5382   0.0000   0.0000   0.0000  -0.0279
  -7.250  -0.3553   0.02374   0.01679  -0.0991  0.9123  0.0543  -3.3935   0.0000   0.0000   0.0000  -0.0437
  -7.000  -0.3311   0.02298   0.01593  -0.0986  0.9080  0.0564  -3.2434   0.0000   0.0000   0.0000  -0.0627
  -6.750  -0.3073   0.02210   0.01484  -0.0980  0.9025  0.0586  -3.1198   0.0000   0.0000   0.0000  -0.0843
  -6.500  -0.2830   0.02106   0.01357  -0.0973  0.8981  0.0606  -3.0069   0.0000   0.0000   0.0000  -0.1099
  -6.250  -0.2586   0.02026   0.01281  -0.0968  0.8930  0.0630  -2.8683   0.0000   0.0000   0.0000  -0.1412
  -6.000  -0.2335   0.01971   0.01214  -0.0963  0.8882  0.0664  -2.7406   0.0000   0.0000   0.0000  -0.1799
  -5.750  -0.2086   0.01899   0.01139  -0.0957  0.8834  0.0701  -2.6201   0.0000   0.0000   0.0000  -0.2274
  -5.500  -0.1832   0.01855   0.01092  -0.0952  0.8785  0.0744  -2.4928   0.0000   0.0000   0.0000  -0.2901
  -5.250  -0.1579   0.01795   0.01029  -0.0947  0.8741  0.0787  -2.3707   0.0000   0.0000   0.0000  -0.3715
  -5.000  -0.1320   0.01764   0.00990  -0.0943  0.8690  0.0846  -2.2546   0.0000   0.0000   0.0000  -0.4888
  -4.750  -0.1067   0.01713   0.00945  -0.0937  0.8647  0.0910  -2.1360   0.0000   0.0000   0.0000  -0.6572
  -4.500  -0.0813   0.01671   0.00906  -0.0933  0.8592  0.0986  -2.0204   0.0000   0.0000   0.0000  -0.9331
  -4.250  -0.0555   0.01629   0.00864  -0.0927  0.8552  0.1083  -1.9032   0.0000   0.0000   0.0000  -1.4678
  -4.000  -0.0295   0.01600   0.00837  -0.0924  0.8494  0.1208  -1.7899   0.0000   0.0000   0.0000  -2.9637
  -3.750  -0.0036   0.01556   0.00800  -0.0918  0.8457  0.1354  -1.6826   0.0000   0.0000   0.0000  -26.0968
  -3.500   0.0222   0.01524   0.00777  -0.0916  0.8396  0.1536  -1.5763   0.0000   0.0000   0.0000   4.4638
  -3.250   0.0486   0.01493   0.00752  -0.0912  0.8352  0.1758  -1.4684   0.0000   0.0000   0.0000   2.1665
  -3.000   0.0749   0.01463   0.00732  -0.0908  0.8298  0.2021  -1.3615   0.0000   0.0000   0.0000   1.4870
  -2.750   0.1011   0.01432   0.00717  -0.0905  0.8246  0.2352  -1.2553   0.0000   0.0000   0.0000   1.1616
  -2.500   0.1276   0.01397   0.00697  -0.0902  0.8199  0.2782  -1.1500   0.0000   0.0000   0.0000   0.9684
  -2.250   0.1534   0.01366   0.00688  -0.0899  0.8139  0.3341  -1.0542   0.0000   0.0000   0.0000   0.8442
  -2.000   0.1795   0.01320   0.00668  -0.0894  0.8099  0.4074  -0.9593   0.0000   0.0000   0.0000   0.7540
  -1.750   0.2042   0.01282   0.00668  -0.0888  0.8033  0.5027  -0.8688   0.0000   0.0000   0.0000   0.6894
  -1.500   0.2285   0.01246   0.00667  -0.0878  0.7980  0.6034  -0.7799   0.0000   0.0000   0.0000   0.6374
  -1.250   0.2527   0.01219   0.00666  -0.0864  0.7930  0.6905  -0.7059   0.0000   0.0000   0.0000   0.5943
  -1.000   0.2762   0.01206   0.00671  -0.0850  0.7867  0.7559  -0.6390   0.0000   0.0000   0.0000   0.5591
  -0.750   0.3003   0.01187   0.00661  -0.0833  0.7822  0.8065  -0.6453   0.0000   0.0000   0.0000   0.5282
  -0.500   0.3231   0.01179   0.00659  -0.0816  0.7755  0.8500  -0.6643   0.0000   0.0000   0.0000   0.5026
  -0.250   0.3461   0.01170   0.00655  -0.0798  0.7690  0.8913  -0.6839   0.0000   0.0000   0.0000   0.4800
   0.000   0.3751   0.01153   0.00634  -0.0790  0.7644  0.9305  -0.7102   0.0000   0.0000   0.0000   0.4596
   0.250   0.4148   0.01145   0.00622  -0.0809  0.7574  0.9646  -0.7426   0.0000   0.0000   0.0000   0.4436
   0.500   0.4639   0.01134   0.00605  -0.0850  0.7509  0.9903  -0.7815   0.0000   0.0000   0.0000   0.4313
   0.750   0.5029   0.01122   0.00584  -0.0873  0.7447  1.0000  -0.8148   0.0000   0.0000   0.0000   0.4213
   1.000   0.5269   0.01115   0.00567  -0.0865  0.7380  1.0000  -0.8401   0.0000   0.0000   0.0000   0.4116
   1.250   0.5514   0.01112   0.00558  -0.0859  0.7299  1.0000  -0.8665   0.0000   0.0000   0.0000   0.4028
   1.500   0.5769   0.01109   0.00548  -0.0853  0.7216  1.0000  -0.8939   0.0000   0.0000   0.0000   0.3946
   1.750   0.6031   0.01106   0.00539  -0.0849  0.7131  1.0000  -0.9271   0.0000   0.0000   0.0000   0.3872
   2.000   0.6298   0.01104   0.00530  -0.0845  0.7042  1.0000  -0.9615   0.0000   0.0000   0.0000   0.3803
   2.250   0.6566   0.01103   0.00523  -0.0842  0.6952  1.0000  -0.9970   0.0000   0.0000   0.0000   0.3740
   2.500   0.6837   0.01104   0.00519  -0.0839  0.6861  1.0000  -1.0335   0.0000   0.0000   0.0000   0.3682
   2.750   0.7109   0.01106   0.00516  -0.0836  0.6768  1.0000  -1.0712   0.0000   0.0000   0.0000   0.3628
   3.000   0.7381   0.01108   0.00513  -0.0833  0.6668  1.0000  -1.1101   0.0000   0.0000   0.0000   0.3578
   3.250   0.7653   0.01112   0.00511  -0.0830  0.6563  1.0000  -1.1503   0.0000   0.0000   0.0000   0.3531
   3.500   0.7917   0.01119   0.00515  -0.0826  0.6436  1.0000  -1.1948   0.0000   0.0000   0.0000   0.3488
   3.750   0.8185   0.01125   0.00515  -0.0823  0.6311  1.0000  -1.2408   0.0000   0.0000   0.0000   0.3446
   4.000   0.8450   0.01134   0.00520  -0.0819  0.6180  1.0000  -1.2869   0.0000   0.0000   0.0000   0.3408
   4.250   0.8715   0.01146   0.00528  -0.0815  0.6047  1.0000  -1.3372   0.0000   0.0000   0.0000   0.3371
   4.500   0.8979   0.01160   0.00537  -0.0812  0.5914  1.0000  -1.3899   0.0000   0.0000   0.0000   0.3337
   4.750   0.9239   0.01176   0.00550  -0.0808  0.5770  1.0000  -1.4450   0.0000   0.0000   0.0000   0.3304
   5.000   0.9496   0.01195   0.00564  -0.0803  0.5620  1.0000  -1.5050   0.0000   0.0000   0.0000   0.3273
   5.250   0.9752   0.01217   0.00580  -0.0799  0.5468  1.0000  -1.5673   0.0000   0.0000   0.0000   0.3243
   5.500   1.0002   0.01240   0.00598  -0.0793  0.5303  1.0000  -1.6325   0.0000   0.0000   0.0000   0.3214
   5.750   1.0247   0.01267   0.00619  -0.0787  0.5129  1.0000  -1.6989   0.0000   0.0000   0.0000   0.3186
   6.000   1.0489   0.01296   0.00643  -0.0781  0.4954  1.0000  -1.7666   0.0000   0.0000   0.0000   0.3160
   6.250   1.0726   0.01327   0.00670  -0.0775  0.4776  1.0000  -1.8428   0.0000   0.0000   0.0000   0.3134
   6.500   1.0958   0.01362   0.00699  -0.0767  0.4593  1.0000  -1.9249   0.0000   0.0000   0.0000   0.3109
   6.750   1.1184   0.01399   0.00731  -0.0759  0.4404  1.0000  -2.0236   0.0000   0.0000   0.0000   0.3084
   7.000   1.1405   0.01440   0.00766  -0.0751  0.4215  1.0000  -2.1225   0.0000   0.0000   0.0000   0.3060
   7.250   1.1617   0.01485   0.00804  -0.0741  0.4023  1.0000  -2.2213   0.0000   0.0000   0.0000   0.3036
   7.500   1.1823   0.01532   0.00846  -0.0731  0.3827  1.0000  -2.3200   0.0000   0.0000   0.0000   0.3013
   7.750   1.2022   0.01583   0.00891  -0.0720  0.3631  1.0000  -2.4223   0.0000   0.0000   0.0000   0.2990
   8.000   1.2212   0.01638   0.00940  -0.0708  0.3440  1.0000  -2.5355   0.0000   0.0000   0.0000   0.2967
   8.250   1.2393   0.01696   0.00994  -0.0694  0.3253  1.0000  -2.6497   0.0000   0.0000   0.0000   0.2945
   8.500   1.2563   0.01760   0.01051  -0.0680  0.3068  1.0000  -2.7624   0.0000   0.0000   0.0000   0.2922
   8.750   1.2722   0.01826   0.01112  -0.0664  0.2890  1.0000  -2.8737   0.0000   0.0000   0.0000   0.2899
   9.000   1.2860   0.01897   0.01177  -0.0646  0.2724  1.0000  -2.9806   0.0000   0.0000   0.0000   0.2875
   9.250   1.2983   0.01975   0.01249  -0.0626  0.2570  1.0000  -3.0845   0.0000   0.0000   0.0000   0.2851
   9.500   1.3112   0.02055   0.01327  -0.0608  0.2420  1.0000  -3.1908   0.0000   0.0000   0.0000   0.2829
   9.750   1.3230   0.02147   0.01414  -0.0590  0.2282  1.0000  -3.2946   0.0000   0.0000   0.0000   0.2808
  10.000   1.3347   0.02242   0.01506  -0.0574  0.2142  1.0000  -3.3993   0.0000   0.0000   0.0000   0.2787
  10.250   1.3457   0.02345   0.01607  -0.0557  0.2012  1.0000  -3.5025   0.0000   0.0000   0.0000   0.2767
  10.500   1.3567   0.02451   0.01712  -0.0542  0.1883  1.0000  -3.6062   0.0000   0.0000   0.0000   0.2749
  10.750   1.3662   0.02572   0.01829  -0.0526  0.1768  1.0000  -3.7060   0.0000   0.0000   0.0000   0.2730
  11.000   1.3760   0.02694   0.01950  -0.0511  0.1657  1.0000  -3.8069   0.0000   0.0000   0.0000   0.2712
  11.250   1.3852   0.02824   0.02080  -0.0497  0.1554  1.0000  -3.9063   0.0000   0.0000   0.0000   0.2695
  11.500   1.3936   0.02963   0.02220  -0.0482  0.1458  1.0000  -4.0033   0.0000   0.0000   0.0000   0.2678
  11.750   1.4015   0.03109   0.02367  -0.0468  0.1367  1.0000  -4.0986   0.0000   0.0000   0.0000   0.2662
  12.000   1.4087   0.03263   0.02522  -0.0455  0.1281  1.0000  -4.1920   0.0000   0.0000   0.0000   0.2646
  12.250   1.4151   0.03427   0.02688  -0.0442  0.1202  1.0000  -4.2825   0.0000   0.0000   0.0000   0.2630
  12.500   1.4204   0.03604   0.02865  -0.0429  0.1128  1.0000  -4.3692   0.0000   0.0000   0.0000   0.2615
  12.750   1.4243   0.03796   0.03058  -0.0417  0.1061  1.0000  -4.4524   0.0000   0.0000   0.0000   0.2601
  13.000   1.4282   0.03993   0.03257  -0.0405  0.0997  1.0000  -4.5390   0.0000   0.0000   0.0000   0.2587
  13.250   1.4324   0.04193   0.03463  -0.0395  0.0935  1.0000  -4.6248   0.0000   0.0000   0.0000   0.2574
  13.500   1.4341   0.04417   0.03689  -0.0384  0.0885  1.0000  -4.7012   0.0000   0.0000   0.0000   0.2561
  13.750   1.4360   0.04647   0.03921  -0.0375  0.0837  1.0000  -4.7782   0.0000   0.0000   0.0000   0.2550
  14.000   1.4381   0.04880   0.04162  -0.0366  0.0793  1.0000  -4.8525   0.0000   0.0000   0.0000   0.2538
  14.250   1.4390   0.05132   0.04415  -0.0359  0.0756  1.0000  -4.9248   0.0000   0.0000   0.0000   0.2528
  14.500   1.4408   0.05383   0.04675  -0.0352  0.0720  1.0000  -4.9948   0.0000   0.0000   0.0000   0.2517
  14.750   1.4423   0.05643   0.04940  -0.0347  0.0687  1.0000  -5.0669   0.0000   0.0000   0.0000   0.2509
  15.000   1.4428   0.05910   0.05208  -0.0341  0.0660  1.0000  -5.1413   0.0000   0.0000   0.0000   0.2499
  15.250   1.4448   0.06179   0.05490  -0.0338  0.0632  1.0000  -5.2212   0.0000   0.0000   0.0000   0.2492
  15.500   1.4460   0.06454   0.05768  -0.0336  0.0609  1.0000  -5.3020   0.0000   0.0000   0.0000   0.2485
  15.750   1.4477   0.06711   0.06025  -0.0330  0.0588  1.0000  -5.3819   0.0000   0.0000   0.0000   0.2475
  16.000   1.4493   0.06999   0.06328  -0.0330  0.0568  1.0000  -5.4553   0.0000   0.0000   0.0000   0.2469
  16.250   1.4510   0.07280   0.06618  -0.0329  0.0551  1.0000  -5.5331   0.0000   0.0000   0.0000   0.2463
  16.500   1.4535   0.07544   0.06884  -0.0328  0.0535  1.0000  -5.6180   0.0000   0.0000   0.0000   0.2456
  16.750   1.4597   0.07737   0.07073  -0.0319  0.0519  1.0000  -5.7161   0.0000   0.0000   0.0000   0.2444
  17.000   1.4588   0.08071   0.07428  -0.0323  0.0508  1.0000  -5.7732   0.0000   0.0000   0.0000   0.2441
  17.250   1.4589   0.08391   0.07763  -0.0326  0.0496  1.0000  -5.8353   0.0000   0.0000   0.0000   0.2437
  17.500   1.4596   0.08701   0.08084  -0.0330  0.0484  1.0000  -5.9315   0.0000   0.0000   0.0000   0.2434
  17.750   1.4618   0.08985   0.08374  -0.0333  0.0473  1.0000  -6.0512   0.0000   0.0000   0.0000   0.2430
  18.000   1.4668   0.09216   0.08604  -0.0333  0.0462  1.0000  -6.1917   0.0000   0.0000   0.0000   0.2423
  18.250   1.4723   0.09431   0.08823  -0.0327  0.0451  1.0000  -6.3287   0.0000   0.0000   0.0000   0.2414
  18.500   1.4668   0.09855   0.09269  -0.0341  0.0445  1.0000  -6.3879   0.0000   0.0000   0.0000   0.2418
  18.750   1.4618   0.10276   0.09710  -0.0355  0.0439  1.0000  -6.4473   0.0000   0.0000   0.0000   0.2422
  19.000   1.4567   0.10704   0.10157  -0.0371  0.0433  1.0000  -6.5036   0.0000   0.0000   0.0000   0.2427
  19.250   1.4509   0.11150   0.10621  -0.0389  0.0427  1.0000  -6.5522   0.0000   0.0000   0.0000   0.2435
  19.500   1.4444   0.11615   0.11103  -0.0411  0.0421  1.0000  -6.5935   0.0000   0.0000   0.0000   0.2445
  19.750   1.4381   0.12084   0.11587  -0.0435  0.0415  1.0000  -6.6337   0.0000   0.0000   0.0000   0.2456
  20.000   1.4324   0.12548   0.12065  -0.0460  0.0410  1.0000  -6.6756   0.0000   0.0000   0.0000   0.2469


