xflr5 v6.61

 Calculated polar for: QX0126

 1 1 Reynolds number fixed          Mach number fixed         

 xtrf =   1.000 (top)        1.000 (bottom)
 Mach =   0.000     Re =     0.860 e 6     Ncrit =   9.000

  alpha     CL        CD       CDp       Cm    Top Xtr Bot Xtr   Cpmin    Chinge    XCp    
 ------- -------- --------- --------- -------- ------- ------- -------- --------- ---------
 -10.000  -0.7189   0.01759   0.01228  -0.0800  0.8518  0.0225  -6.3819   0.0000   0.0000   0.0000   0.1256
  -9.750  -0.6932   0.01706   0.01165  -0.0799  0.8483  0.0229  -6.1480   0.0000   0.0000   0.0000   0.1218
  -9.500  -0.6701   0.01603   0.01054  -0.0797  0.8453  0.0238  -5.9428   0.0000   0.0000   0.0000   0.1183
  -9.250  -0.6435   0.01559   0.01007  -0.0797  0.8417  0.0244  -5.7033   0.0000   0.0000   0.0000   0.1135
  -9.000  -0.6168   0.01519   0.00963  -0.0797  0.8385  0.0250  -5.4684   0.0000   0.0000   0.0000   0.1083
  -8.750  -0.5900   0.01479   0.00917  -0.0796  0.8355  0.0256  -5.2399   0.0000   0.0000   0.0000   0.1026
  -8.500  -0.5629   0.01440   0.00872  -0.0796  0.8319  0.0263  -5.0139   0.0000   0.0000   0.0000   0.0961
  -8.250  -0.5356   0.01409   0.00833  -0.0796  0.8287  0.0269  -4.7916   0.0000   0.0000   0.0000   0.0890
  -8.000  -0.5086   0.01363   0.00780  -0.0795  0.8252  0.0275  -4.5894   0.0000   0.0000   0.0000   0.0812
  -7.750  -0.4825   0.01297   0.00711  -0.0795  0.8217  0.0286  -4.3975   0.0000   0.0000   0.0000   0.0729
  -7.500  -0.4551   0.01263   0.00672  -0.0794  0.8187  0.0294  -4.1932   0.0000   0.0000   0.0000   0.0630
  -7.250  -0.4271   0.01233   0.00641  -0.0795  0.8149  0.0304  -3.9900   0.0000   0.0000   0.0000   0.0513
  -7.000  -0.3991   0.01207   0.00609  -0.0795  0.8115  0.0315  -3.7942   0.0000   0.0000   0.0000   0.0380
  -6.750  -0.3708   0.01185   0.00582  -0.0795  0.8084  0.0324  -3.6089   0.0000   0.0000   0.0000   0.0225
  -6.500  -0.3437   0.01129   0.00524  -0.0796  0.8047  0.0342  -3.4404   0.0000   0.0000   0.0000   0.0053
  -6.250  -0.3156   0.01102   0.00494  -0.0796  0.8016  0.0358  -3.2658   0.0000   0.0000   0.0000  -0.0157
  -6.000  -0.2872   0.01078   0.00467  -0.0797  0.7979  0.0377  -3.1004   0.0000   0.0000   0.0000  -0.0414
  -5.750  -0.2592   0.01044   0.00430  -0.0797  0.7941  0.0403  -2.9427   0.0000   0.0000   0.0000  -0.0721
  -5.500  -0.2309   0.01021   0.00406  -0.0797  0.7908  0.0431  -2.7808   0.0000   0.0000   0.0000  -0.1109
  -5.250  -0.2022   0.00999   0.00382  -0.0799  0.7868  0.0457  -2.6283   0.0000   0.0000   0.0000  -0.1615
  -5.000  -0.1738   0.00974   0.00357  -0.0799  0.7834  0.0494  -2.4828   0.0000   0.0000   0.0000  -0.2278
  -4.750  -0.1449   0.00959   0.00340  -0.0800  0.7794  0.0522  -2.3368   0.0000   0.0000   0.0000  -0.3224
  -4.500  -0.1165   0.00934   0.00316  -0.0801  0.7755  0.0570  -2.1960   0.0000   0.0000   0.0000  -0.4614
  -4.250  -0.0877   0.00916   0.00297  -0.0802  0.7719  0.0621  -2.0562   0.0000   0.0000   0.0000  -0.6935
  -4.000  -0.0589   0.00896   0.00280  -0.0804  0.7675  0.0691  -1.9186   0.0000   0.0000   0.0000  -1.1529
  -3.750  -0.0303   0.00877   0.00264  -0.0805  0.7636  0.0790  -1.7923   0.0000   0.0000   0.0000  -2.4787
  -3.500  -0.0014   0.00860   0.00251  -0.0806  0.7587  0.0902  -1.6678   0.0000   0.0000   0.0000  -58.5160
  -3.250   0.0274   0.00844   0.00236  -0.0807  0.7546  0.1013  -1.5455   0.0000   0.0000   0.0000   3.2606
  -3.000   0.0563   0.00827   0.00225  -0.0809  0.7497  0.1152  -1.4254   0.0000   0.0000   0.0000   1.7157
  -2.750   0.0851   0.00812   0.00214  -0.0810  0.7456  0.1324  -1.3077   0.0000   0.0000   0.0000   1.2186
  -2.500   0.1140   0.00795   0.00204  -0.0812  0.7405  0.1503  -1.1928   0.0000   0.0000   0.0000   0.9731
  -2.250   0.1428   0.00779   0.00195  -0.0813  0.7355  0.1745  -1.0806   0.0000   0.0000   0.0000   0.8271
  -2.000   0.1716   0.00763   0.00186  -0.0815  0.7300  0.2010  -0.9785   0.0000   0.0000   0.0000   0.7301
  -1.750   0.2005   0.00748   0.00180  -0.0817  0.7245  0.2288  -0.8787   0.0000   0.0000   0.0000   0.6609
  -1.500   0.2293   0.00734   0.00173  -0.0818  0.7193  0.2599  -0.7815   0.0000   0.0000   0.0000   0.6092
  -1.250   0.2581   0.00717   0.00168  -0.0820  0.7131  0.2976  -0.7037   0.0000   0.0000   0.0000   0.5691
  -1.000   0.2868   0.00700   0.00163  -0.0822  0.7071  0.3421  -0.6427   0.0000   0.0000   0.0000   0.5371
  -0.750   0.3152   0.00679   0.00159  -0.0823  0.7013  0.4028  -0.6628   0.0000   0.0000   0.0000   0.5111
  -0.500   0.3434   0.00650   0.00158  -0.0825  0.6944  0.4925  -0.6833   0.0000   0.0000   0.0000   0.4896
  -0.250   0.3716   0.00629   0.00157  -0.0826  0.6869  0.5683  -0.7058   0.0000   0.0000   0.0000   0.4711
   0.000   0.3996   0.00612   0.00158  -0.0825  0.6789  0.6370  -0.7315   0.0000   0.0000   0.0000   0.4550
   0.250   0.4276   0.00601   0.00161  -0.0825  0.6702  0.6944  -0.7574   0.0000   0.0000   0.0000   0.4409
   0.500   0.4557   0.00596   0.00163  -0.0824  0.6611  0.7325  -0.7842   0.0000   0.0000   0.0000   0.4284
   0.750   0.4838   0.00592   0.00166  -0.0823  0.6525  0.7666  -0.8111   0.0000   0.0000   0.0000   0.4174
   1.000   0.5115   0.00589   0.00170  -0.0821  0.6441  0.8003  -0.8380   0.0000   0.0000   0.0000   0.4075
   1.250   0.5387   0.00586   0.00174  -0.0817  0.6348  0.8365  -0.8663   0.0000   0.0000   0.0000   0.3984
   1.500   0.5652   0.00585   0.00179  -0.0812  0.6245  0.8689  -0.8944   0.0000   0.0000   0.0000   0.3901
   1.750   0.5910   0.00586   0.00183  -0.0806  0.6131  0.8999  -0.9258   0.0000   0.0000   0.0000   0.3824
   2.000   0.6160   0.00588   0.00188  -0.0797  0.6011  0.9325  -0.9594   0.0000   0.0000   0.0000   0.3752
   2.250   0.6455   0.00593   0.00191  -0.0798  0.5877  0.9673  -0.9969   0.0000   0.0000   0.0000   0.3692
   2.500   0.6833   0.00603   0.00195  -0.0819  0.5731  0.9933  -1.0418   0.0000   0.0000   0.0000   0.3652
   2.750   0.7142   0.00615   0.00200  -0.0826  0.5597  1.0000  -1.0823   0.0000   0.0000   0.0000   0.3607
   3.000   0.7416   0.00629   0.00208  -0.0825  0.5467  1.0000  -1.1214   0.0000   0.0000   0.0000   0.3561
   3.250   0.7692   0.00644   0.00217  -0.0825  0.5330  1.0000  -1.1628   0.0000   0.0000   0.0000   0.3518
   3.500   0.7965   0.00661   0.00227  -0.0825  0.5193  1.0000  -1.2089   0.0000   0.0000   0.0000   0.3478
   3.750   0.8239   0.00678   0.00237  -0.0824  0.5044  1.0000  -1.2554   0.0000   0.0000   0.0000   0.3440
   4.000   0.8510   0.00697   0.00249  -0.0823  0.4879  1.0000  -1.3020   0.0000   0.0000   0.0000   0.3404
   4.250   0.8779   0.00717   0.00262  -0.0822  0.4716  1.0000  -1.3528   0.0000   0.0000   0.0000   0.3371
   4.500   0.9048   0.00739   0.00276  -0.0821  0.4565  1.0000  -1.4065   0.0000   0.0000   0.0000   0.3339
   4.750   0.9316   0.00761   0.00292  -0.0820  0.4399  1.0000  -1.4633   0.0000   0.0000   0.0000   0.3309
   5.000   0.9581   0.00784   0.00308  -0.0818  0.4226  1.0000  -1.5264   0.0000   0.0000   0.0000   0.3280
   5.250   0.9844   0.00809   0.00326  -0.0817  0.4054  1.0000  -1.5922   0.0000   0.0000   0.0000   0.3252
   5.500   1.0105   0.00836   0.00345  -0.0815  0.3878  1.0000  -1.6602   0.0000   0.0000   0.0000   0.3226
   5.750   1.0363   0.00865   0.00366  -0.0812  0.3694  1.0000  -1.7287   0.0000   0.0000   0.0000   0.3201
   6.000   1.0617   0.00896   0.00388  -0.0809  0.3502  1.0000  -1.7997   0.0000   0.0000   0.0000   0.3176
   6.250   1.0870   0.00928   0.00412  -0.0806  0.3324  1.0000  -1.8823   0.0000   0.0000   0.0000   0.3153
   6.500   1.1119   0.00962   0.00437  -0.0803  0.3140  1.0000  -1.9850   0.0000   0.0000   0.0000   0.3130
   6.750   1.1362   0.00999   0.00465  -0.0799  0.2941  1.0000  -2.0882   0.0000   0.0000   0.0000   0.3107
   7.000   1.1604   0.01036   0.00494  -0.0794  0.2761  1.0000  -2.1930   0.0000   0.0000   0.0000   0.3086
   7.250   1.1845   0.01073   0.00524  -0.0790  0.2600  1.0000  -2.2990   0.0000   0.0000   0.0000   0.3065
   7.500   1.2078   0.01115   0.00556  -0.0785  0.2419  1.0000  -2.4120   0.0000   0.0000   0.0000   0.3044
   7.750   1.2305   0.01160   0.00592  -0.0778  0.2239  1.0000  -2.5376   0.0000   0.0000   0.0000   0.3024
   8.000   1.2530   0.01204   0.00628  -0.0772  0.2073  1.0000  -2.6648   0.0000   0.0000   0.0000   0.3004
   8.250   1.2750   0.01251   0.00666  -0.0765  0.1910  1.0000  -2.7926   0.0000   0.0000   0.0000   0.2984
   8.500   1.2966   0.01298   0.00705  -0.0757  0.1771  1.0000  -2.9215   0.0000   0.0000   0.0000   0.2964
   8.750   1.3180   0.01343   0.00746  -0.0749  0.1653  1.0000  -3.0519   0.0000   0.0000   0.0000   0.2945
   9.000   1.3389   0.01390   0.00788  -0.0740  0.1544  1.0000  -3.1826   0.0000   0.0000   0.0000   0.2926
   9.250   1.3591   0.01438   0.00832  -0.0731  0.1444  1.0000  -3.3133   0.0000   0.0000   0.0000   0.2907
   9.500   1.3775   0.01488   0.00878  -0.0718  0.1346  1.0000  -3.4406   0.0000   0.0000   0.0000   0.2887
   9.750   1.3946   0.01543   0.00929  -0.0704  0.1251  1.0000  -3.5658   0.0000   0.0000   0.0000   0.2866
  10.250   1.4270   0.01669   0.01048  -0.0676  0.1070  1.0000  -3.8150   0.0000   0.0000   0.0000   0.2827
  10.500   1.4425   0.01739   0.01115  -0.0662  0.0989  1.0000  -3.9393   0.0000   0.0000   0.0000   0.2809
  10.750   1.4578   0.01813   0.01187  -0.0649  0.0916  1.0000  -4.0643   0.0000   0.0000   0.0000   0.2791
  11.000   1.4734   0.01886   0.01260  -0.0637  0.0851  1.0000  -4.1911   0.0000   0.0000   0.0000   0.2773
  11.250   1.4880   0.01968   0.01340  -0.0624  0.0790  1.0000  -4.3160   0.0000   0.0000   0.0000   0.2756
  11.500   1.5018   0.02057   0.01428  -0.0611  0.0733  1.0000  -4.4390   0.0000   0.0000   0.0000   0.2739
  11.750   1.5149   0.02152   0.01522  -0.0598  0.0678  1.0000  -4.5612   0.0000   0.0000   0.0000   0.2723
  12.000   1.5286   0.02245   0.01617  -0.0586  0.0629  1.0000  -4.6856   0.0000   0.0000   0.0000   0.2707
  12.250   1.5404   0.02352   0.01724  -0.0573  0.0583  1.0000  -4.8061   0.0000   0.0000   0.0000   0.2691
  12.500   1.5519   0.02464   0.01835  -0.0560  0.0539  1.0000  -4.9315   0.0000   0.0000   0.0000   0.2675
  12.750   1.5632   0.02578   0.01952  -0.0548  0.0502  1.0000  -5.0564   0.0000   0.0000   0.0000   0.2660
  13.000   1.5727   0.02708   0.02083  -0.0534  0.0465  1.0000  -5.1757   0.0000   0.0000   0.0000   0.2645
  13.250   1.5829   0.02835   0.02213  -0.0522  0.0436  1.0000  -5.2977   0.0000   0.0000   0.0000   0.2630
  13.500   1.5915   0.02976   0.02356  -0.0510  0.0407  1.0000  -5.4146   0.0000   0.0000   0.0000   0.2615
  13.750   1.5985   0.03133   0.02516  -0.0497  0.0383  1.0000  -5.5247   0.0000   0.0000   0.0000   0.2601
  14.000   1.6071   0.03279   0.02667  -0.0486  0.0365  1.0000  -5.6517   0.0000   0.0000   0.0000   0.2587
  14.250   1.6128   0.03453   0.02844  -0.0474  0.0348  1.0000  -5.7691   0.0000   0.0000   0.0000   0.2574
  14.500   1.6142   0.03669   0.03064  -0.0461  0.0329  1.0000  -5.8661   0.0000   0.0000   0.0000   0.2560
  14.750   1.6224   0.03827   0.03230  -0.0453  0.0320  1.0000  -6.0364   0.0000   0.0000   0.0000   0.2548
  15.000   1.6286   0.04009   0.03418  -0.0444  0.0309  1.0000  -6.2024   0.0000   0.0000   0.0000   0.2536
  15.250   1.6327   0.04216   0.03632  -0.0436  0.0298  1.0000  -6.3578   0.0000   0.0000   0.0000   0.2525
  15.500   1.6344   0.04455   0.03876  -0.0428  0.0289  1.0000  -6.4999   0.0000   0.0000   0.0000   0.2515
  15.750   1.6317   0.04749   0.04177  -0.0421  0.0278  1.0000  -6.6145   0.0000   0.0000   0.0000   0.2505
  16.000   1.6335   0.05004   0.04440  -0.0416  0.0272  1.0000  -6.7567   0.0000   0.0000   0.0000   0.2496
  16.250   1.6369   0.05248   0.04692  -0.0413  0.0267  1.0000  -6.9102   0.0000   0.0000   0.0000   0.2488
  16.500   1.6385   0.05515   0.04969  -0.0410  0.0262  1.0000  -7.0538   0.0000   0.0000   0.0000   0.2480
  16.750   1.6390   0.05802   0.05264  -0.0409  0.0257  1.0000  -7.1910   0.0000   0.0000   0.0000   0.2473
  17.000   1.6380   0.06113   0.05583  -0.0409  0.0251  1.0000  -7.3188   0.0000   0.0000   0.0000   0.2467
  17.250   1.6353   0.06451   0.05929  -0.0410  0.0246  1.0000  -7.4356   0.0000   0.0000   0.0000   0.2462
  17.500   1.6305   0.06825   0.06310  -0.0413  0.0242  1.0000  -7.5374   0.0000   0.0000   0.0000   0.2459
  17.750   1.6226   0.07245   0.06739  -0.0418  0.0237  1.0000  -7.6168   0.0000   0.0000   0.0000   0.2457
  18.000   1.6111   0.07725   0.07229  -0.0426  0.0232  1.0000  -7.6685   0.0000   0.0000   0.0000   0.2457
  18.250   1.5974   0.08244   0.07759  -0.0435  0.0228  1.0000  -7.7013   0.0000   0.0000   0.0000   0.2459
  18.500   1.5942   0.08624   0.08149  -0.0443  0.0226  1.0000  -7.8087   0.0000   0.0000   0.0000   0.2459
  18.750   1.5893   0.09031   0.08566  -0.0453  0.0224  1.0000  -7.9033   0.0000   0.0000   0.0000   0.2459
  19.000   1.5830   0.09463   0.09008  -0.0464  0.0221  1.0000  -7.9858   0.0000   0.0000   0.0000   0.2461
  19.250   1.5759   0.09914   0.09470  -0.0477  0.0219  1.0000  -8.0592   0.0000   0.0000   0.0000   0.2464
  19.500   1.5681   0.10378   0.09944  -0.0492  0.0217  1.0000  -8.1255   0.0000   0.0000   0.0000   0.2469
  19.750   1.5600   0.10852   0.10428  -0.0508  0.0214  1.0000  -8.1863   0.0000   0.0000   0.0000   0.2474
  20.000   1.5520   0.11333   0.10918  -0.0527  0.0212  1.0000  -8.2437   0.0000   0.0000   0.0000   0.2481


