xflr5 v6.61

 Calculated polar for: QX0126

 1 1 Reynolds number fixed          Mach number fixed         

 xtrf =   1.000 (top)        1.000 (bottom)
 Mach =   0.000     Re =     0.900 e 6     Ncrit =   9.000

  alpha     CL        CD       CDp       Cm    Top Xtr Bot Xtr   Cpmin    Chinge    XCp    
 ------- -------- --------- --------- -------- ------- ------- -------- --------- ---------
 -10.000  -0.7219   0.01704   0.01174  -0.0797  0.8491  0.0222  -6.4168   0.0000   0.0000   0.0000   0.1265
  -9.750  -0.6957   0.01665   0.01126  -0.0796  0.8461  0.0226  -6.1744   0.0000   0.0000   0.0000   0.1226
  -9.500  -0.6710   0.01583   0.01035  -0.0795  0.8425  0.0233  -5.9576   0.0000   0.0000   0.0000   0.1187
  -9.250  -0.6456   0.01518   0.00966  -0.0794  0.8392  0.0240  -5.7306   0.0000   0.0000   0.0000   0.1143
  -9.000  -0.6189   0.01481   0.00924  -0.0794  0.8364  0.0246  -5.4936   0.0000   0.0000   0.0000   0.1092
  -8.750  -0.5917   0.01442   0.00883  -0.0794  0.8329  0.0253  -5.2603   0.0000   0.0000   0.0000   0.1033
  -8.500  -0.5646   0.01406   0.00840  -0.0794  0.8296  0.0259  -5.0322   0.0000   0.0000   0.0000   0.0970
  -8.250  -0.5372   0.01374   0.00802  -0.0793  0.8264  0.0266  -4.8092   0.0000   0.0000   0.0000   0.0899
  -8.000  -0.5094   0.01345   0.00767  -0.0794  0.8227  0.0272  -4.5970   0.0000   0.0000   0.0000   0.0818
  -7.750  -0.4834   0.01279   0.00694  -0.0793  0.8196  0.0281  -4.4078   0.0000   0.0000   0.0000   0.0736
  -7.500  -0.4561   0.01237   0.00650  -0.0793  0.8162  0.0290  -4.2060   0.0000   0.0000   0.0000   0.0637
  -7.250  -0.4282   0.01208   0.00618  -0.0793  0.8126  0.0300  -4.0018   0.0000   0.0000   0.0000   0.0522
  -7.000  -0.4002   0.01183   0.00588  -0.0793  0.8096  0.0311  -3.8051   0.0000   0.0000   0.0000   0.0391
  -6.750  -0.3718   0.01159   0.00561  -0.0794  0.8059  0.0321  -3.6190   0.0000   0.0000   0.0000   0.0236
  -6.500  -0.3443   0.01114   0.00512  -0.0794  0.8026  0.0336  -3.4466   0.0000   0.0000   0.0000   0.0063
  -6.250  -0.3164   0.01083   0.00479  -0.0794  0.7994  0.0354  -3.2736   0.0000   0.0000   0.0000  -0.0146
  -6.000  -0.2879   0.01059   0.00453  -0.0795  0.7955  0.0373  -3.1071   0.0000   0.0000   0.0000  -0.0402
  -5.750  -0.2597   0.01032   0.00421  -0.0795  0.7922  0.0395  -2.9469   0.0000   0.0000   0.0000  -0.0708
  -5.500  -0.2313   0.01004   0.00395  -0.0796  0.7882  0.0426  -2.7856   0.0000   0.0000   0.0000  -0.1097
  -5.250  -0.2026   0.00988   0.00375  -0.0797  0.7847  0.0449  -2.6309   0.0000   0.0000   0.0000  -0.1600
  -5.000  -0.1743   0.00960   0.00347  -0.0798  0.7812  0.0487  -2.4867   0.0000   0.0000   0.0000  -0.2259
  -4.750  -0.1454   0.00944   0.00330  -0.0799  0.7770  0.0518  -2.3404   0.0000   0.0000   0.0000  -0.3198
  -4.500  -0.1169   0.00922   0.00307  -0.0800  0.7737  0.0562  -2.1990   0.0000   0.0000   0.0000  -0.4576
  -4.250  -0.0879   0.00904   0.00290  -0.0801  0.7694  0.0608  -2.0580   0.0000   0.0000   0.0000  -0.6900
  -4.000  -0.0593   0.00885   0.00272  -0.0802  0.7656  0.0678  -1.9204   0.0000   0.0000   0.0000  -1.1431
  -3.750  -0.0305   0.00865   0.00257  -0.0804  0.7610  0.0776  -1.7938   0.0000   0.0000   0.0000  -2.4587
  -3.500  -0.0017   0.00848   0.00243  -0.0805  0.7566  0.0888  -1.6693   0.0000   0.0000   0.0000  -48.5517
  -3.250   0.0272   0.00832   0.00230  -0.0807  0.7520  0.0998  -1.5467   0.0000   0.0000   0.0000   3.2762
  -2.750   0.0851   0.00802   0.00209  -0.0810  0.7430  0.1299  -1.3084   0.0000   0.0000   0.0000   1.2187
  -2.500   0.1138   0.00786   0.00197  -0.0811  0.7384  0.1475  -1.1936   0.0000   0.0000   0.0000   0.9733
  -2.250   0.1427   0.00769   0.00189  -0.0813  0.7328  0.1704  -1.0812   0.0000   0.0000   0.0000   0.8270
  -2.000   0.1715   0.00754   0.00181  -0.0814  0.7277  0.1969  -0.9789   0.0000   0.0000   0.0000   0.7299
  -1.750   0.2005   0.00739   0.00174  -0.0816  0.7221  0.2239  -0.8790   0.0000   0.0000   0.0000   0.6607
  -1.500   0.2293   0.00725   0.00168  -0.0818  0.7165  0.2546  -0.7815   0.0000   0.0000   0.0000   0.6090
  -1.250   0.2580   0.00710   0.00162  -0.0819  0.7109  0.2903  -0.7040   0.0000   0.0000   0.0000   0.5689
  -1.000   0.2869   0.00693   0.00158  -0.0821  0.7045  0.3332  -0.6428   0.0000   0.0000   0.0000   0.5369
  -0.750   0.3155   0.00674   0.00155  -0.0823  0.6984  0.3888  -0.6630   0.0000   0.0000   0.0000   0.5109
  -0.500   0.3436   0.00646   0.00152  -0.0825  0.6918  0.4743  -0.6835   0.0000   0.0000   0.0000   0.4893
  -0.250   0.3718   0.00625   0.00152  -0.0825  0.6843  0.5543  -0.7060   0.0000   0.0000   0.0000   0.4709
   0.000   0.3999   0.00607   0.00152  -0.0826  0.6759  0.6225  -0.7317   0.0000   0.0000   0.0000   0.4549
   0.250   0.4279   0.00595   0.00155  -0.0825  0.6671  0.6842  -0.7577   0.0000   0.0000   0.0000   0.4408
   0.500   0.4561   0.00590   0.00157  -0.0824  0.6580  0.7231  -0.7845   0.0000   0.0000   0.0000   0.4284
   0.750   0.4843   0.00586   0.00160  -0.0824  0.6495  0.7581  -0.8114   0.0000   0.0000   0.0000   0.4174
   1.000   0.5122   0.00583   0.00164  -0.0822  0.6408  0.7908  -0.8385   0.0000   0.0000   0.0000   0.4075
   1.250   0.5395   0.00580   0.00169  -0.0819  0.6313  0.8274  -0.8669   0.0000   0.0000   0.0000   0.3986
   1.500   0.5662   0.00580   0.00174  -0.0815  0.6210  0.8601  -0.8951   0.0000   0.0000   0.0000   0.3903
   1.750   0.5924   0.00580   0.00179  -0.0809  0.6091  0.8910  -0.9268   0.0000   0.0000   0.0000   0.3827
   2.000   0.6175   0.00582   0.00184  -0.0801  0.5968  0.9226  -0.9605   0.0000   0.0000   0.0000   0.3755
   2.250   0.6442   0.00587   0.00188  -0.0796  0.5837  0.9583  -0.9959   0.0000   0.0000   0.0000   0.3691
   2.500   0.6804   0.00596   0.00192  -0.0813  0.5689  0.9872  -1.0396   0.0000   0.0000   0.0000   0.3648
   2.750   0.7143   0.00608   0.00197  -0.0826  0.5556  1.0000  -1.0824   0.0000   0.0000   0.0000   0.3607
   3.000   0.7418   0.00622   0.00205  -0.0826  0.5422  1.0000  -1.1216   0.0000   0.0000   0.0000   0.3561
   3.250   0.7692   0.00637   0.00213  -0.0825  0.5289  1.0000  -1.1630   0.0000   0.0000   0.0000   0.3518
   3.500   0.7967   0.00653   0.00223  -0.0825  0.5147  1.0000  -1.2092   0.0000   0.0000   0.0000   0.3478
   3.750   0.8240   0.00671   0.00234  -0.0824  0.4998  1.0000  -1.2557   0.0000   0.0000   0.0000   0.3440
   4.000   0.8511   0.00691   0.00246  -0.0824  0.4831  1.0000  -1.3023   0.0000   0.0000   0.0000   0.3405
   4.250   0.8781   0.00711   0.00259  -0.0823  0.4670  1.0000  -1.3531   0.0000   0.0000   0.0000   0.3371
   4.500   0.9052   0.00731   0.00273  -0.0822  0.4516  1.0000  -1.4070   0.0000   0.0000   0.0000   0.3339
   4.750   0.9319   0.00753   0.00288  -0.0821  0.4351  1.0000  -1.4639   0.0000   0.0000   0.0000   0.3309
   5.000   0.9585   0.00777   0.00304  -0.0819  0.4179  1.0000  -1.5270   0.0000   0.0000   0.0000   0.3281
   5.250   0.9848   0.00803   0.00322  -0.0818  0.4007  1.0000  -1.5928   0.0000   0.0000   0.0000   0.3253
   5.500   1.0108   0.00830   0.00341  -0.0815  0.3830  1.0000  -1.6609   0.0000   0.0000   0.0000   0.3227
   5.750   1.0366   0.00859   0.00362  -0.0813  0.3644  1.0000  -1.7294   0.0000   0.0000   0.0000   0.3201
   6.000   1.0622   0.00889   0.00384  -0.0811  0.3454  1.0000  -1.8006   0.0000   0.0000   0.0000   0.3177
   6.250   1.0875   0.00921   0.00407  -0.0808  0.3277  1.0000  -1.8839   0.0000   0.0000   0.0000   0.3153
   6.500   1.1124   0.00955   0.00433  -0.0804  0.3090  1.0000  -1.9867   0.0000   0.0000   0.0000   0.3131
   6.750   1.1369   0.00991   0.00460  -0.0800  0.2892  1.0000  -2.0904   0.0000   0.0000   0.0000   0.3108
   7.000   1.1612   0.01028   0.00488  -0.0796  0.2719  1.0000  -2.1953   0.0000   0.0000   0.0000   0.3087
   7.250   1.1852   0.01066   0.00519  -0.0792  0.2556  1.0000  -2.3011   0.0000   0.0000   0.0000   0.3066
   7.500   1.2085   0.01108   0.00551  -0.0786  0.2371  1.0000  -2.4146   0.0000   0.0000   0.0000   0.3045
   7.750   1.2313   0.01153   0.00586  -0.0780  0.2194  1.0000  -2.5405   0.0000   0.0000   0.0000   0.3025
   8.250   1.2760   0.01242   0.00659  -0.0767  0.1868  1.0000  -2.7965   0.0000   0.0000   0.0000   0.2985
   8.500   1.2980   0.01286   0.00697  -0.0759  0.1738  1.0000  -2.9265   0.0000   0.0000   0.0000   0.2966
   8.750   1.3196   0.01331   0.00737  -0.0752  0.1621  1.0000  -3.0574   0.0000   0.0000   0.0000   0.2947
   9.000   1.3404   0.01379   0.00779  -0.0743  0.1515  1.0000  -3.1880   0.0000   0.0000   0.0000   0.2927
   9.250   1.3607   0.01427   0.00824  -0.0733  0.1416  1.0000  -3.3189   0.0000   0.0000   0.0000   0.2908
   9.500   1.3796   0.01476   0.00868  -0.0722  0.1320  1.0000  -3.4479   0.0000   0.0000   0.0000   0.2889
   9.750   1.3970   0.01528   0.00917  -0.0708  0.1225  1.0000  -3.5743   0.0000   0.0000   0.0000   0.2868
  10.000   1.4138   0.01586   0.00972  -0.0694  0.1132  1.0000  -3.7001   0.0000   0.0000   0.0000   0.2848
  10.250   1.4300   0.01650   0.01032  -0.0680  0.1046  1.0000  -3.8255   0.0000   0.0000   0.0000   0.2829
  10.500   1.4456   0.01718   0.01098  -0.0666  0.0967  1.0000  -3.9504   0.0000   0.0000   0.0000   0.2811
  10.750   1.4608   0.01792   0.01170  -0.0653  0.0897  1.0000  -4.0750   0.0000   0.0000   0.0000   0.2792
  11.250   1.4908   0.01947   0.01323  -0.0627  0.0771  1.0000  -4.3269   0.0000   0.0000   0.0000   0.2758
  11.500   1.5053   0.02031   0.01406  -0.0615  0.0716  1.0000  -4.4525   0.0000   0.0000   0.0000   0.2741
  11.750   1.5183   0.02127   0.01500  -0.0602  0.0663  1.0000  -4.5743   0.0000   0.0000   0.0000   0.2724
  12.000   1.5316   0.02221   0.01596  -0.0589  0.0613  1.0000  -4.6982   0.0000   0.0000   0.0000   0.2708
  12.250   1.5444   0.02322   0.01697  -0.0577  0.0569  1.0000  -4.8222   0.0000   0.0000   0.0000   0.2693
  12.750   1.5673   0.02545   0.01922  -0.0551  0.0489  1.0000  -5.0738   0.0000   0.0000   0.0000   0.2661
  13.000   1.5761   0.02680   0.02057  -0.0538  0.0452  1.0000  -5.1905   0.0000   0.0000   0.0000   0.2646
  13.250   1.5875   0.02797   0.02178  -0.0526  0.0425  1.0000  -5.3177   0.0000   0.0000   0.0000   0.2632
  13.500   1.5951   0.02946   0.02328  -0.0513  0.0396  1.0000  -5.4307   0.0000   0.0000   0.0000   0.2617
  13.750   1.6042   0.03085   0.02471  -0.0501  0.0375  1.0000  -5.5496   0.0000   0.0000   0.0000   0.2603
  14.000   1.6120   0.03236   0.02627  -0.0490  0.0357  1.0000  -5.6754   0.0000   0.0000   0.0000   0.2589
  14.250   1.6166   0.03419   0.02812  -0.0477  0.0338  1.0000  -5.7880   0.0000   0.0000   0.0000   0.2575
  14.500   1.6222   0.03596   0.02995  -0.0466  0.0324  1.0000  -5.9161   0.0000   0.0000   0.0000   0.2562
  14.750   1.6298   0.03759   0.03165  -0.0457  0.0313  1.0000  -6.0894   0.0000   0.0000   0.0000   0.2549
  15.000   1.6351   0.03946   0.03358  -0.0447  0.0302  1.0000  -6.2513   0.0000   0.0000   0.0000   0.2537
  15.250   1.6383   0.04161   0.03577  -0.0438  0.0291  1.0000  -6.4027   0.0000   0.0000   0.0000   0.2526
  15.500   1.6379   0.04419   0.03842  -0.0430  0.0280  1.0000  -6.5320   0.0000   0.0000   0.0000   0.2515
  15.750   1.6393   0.04670   0.04100  -0.0423  0.0273  1.0000  -6.6718   0.0000   0.0000   0.0000   0.2505
  16.000   1.6438   0.04891   0.04330  -0.0419  0.0268  1.0000  -6.8329   0.0000   0.0000   0.0000   0.2496
  16.250   1.6468   0.05136   0.04582  -0.0415  0.0262  1.0000  -6.9857   0.0000   0.0000   0.0000   0.2487
  16.500   1.6484   0.05401   0.04856  -0.0412  0.0256  1.0000  -7.1302   0.0000   0.0000   0.0000   0.2480
  16.750   1.6484   0.05692   0.05154  -0.0410  0.0251  1.0000  -7.2654   0.0000   0.0000   0.0000   0.2473
  17.000   1.6467   0.06008   0.05478  -0.0410  0.0246  1.0000  -7.3903   0.0000   0.0000   0.0000   0.2466
  17.250   1.6426   0.06361   0.05838  -0.0410  0.0240  1.0000  -7.4985   0.0000   0.0000   0.0000   0.2462
  17.500   1.6351   0.06767   0.06253  -0.0414  0.0235  1.0000  -7.5824   0.0000   0.0000   0.0000   0.2458
  17.750   1.6232   0.07239   0.06736  -0.0419  0.0230  1.0000  -7.6336   0.0000   0.0000   0.0000   0.2457
  18.000   1.6180   0.07634   0.07140  -0.0425  0.0227  1.0000  -7.7298   0.0000   0.0000   0.0000   0.2456
  18.250   1.6151   0.08000   0.07516  -0.0431  0.0224  1.0000  -7.8430   0.0000   0.0000   0.0000   0.2454
  18.500   1.6106   0.08392   0.07918  -0.0438  0.0222  1.0000  -7.9436   0.0000   0.0000   0.0000   0.2453
  18.750   1.6047   0.08811   0.08347  -0.0448  0.0219  1.0000  -8.0328   0.0000   0.0000   0.0000   0.2453
  19.000   1.5975   0.09253   0.08799  -0.0459  0.0217  1.0000  -8.1105   0.0000   0.0000   0.0000   0.2455
  19.250   1.5896   0.09711   0.09268  -0.0472  0.0214  1.0000  -8.1808   0.0000   0.0000   0.0000   0.2458
  19.500   1.5813   0.10182   0.09748  -0.0486  0.0212  1.0000  -8.2451   0.0000   0.0000   0.0000   0.2462
  19.750   1.5726   0.10662   0.10238  -0.0502  0.0210  1.0000  -8.3037   0.0000   0.0000   0.0000   0.2468
  20.000   1.5639   0.11150   0.10735  -0.0520  0.0208  1.0000  -8.3582   0.0000   0.0000   0.0000   0.2475


