xflr5 v6.61

 Calculated polar for: QX0126

 1 1 Reynolds number fixed          Mach number fixed         

 xtrf =   1.000 (top)        1.000 (bottom)
 Mach =   0.000     Re =     0.600 e 6     Ncrit =   9.000

  alpha     CL        CD       CDp       Cm    Top Xtr Bot Xtr   Cpmin    Chinge    XCp    
 ------- -------- --------- --------- -------- ------- ------- -------- --------- ---------
 -10.000  -0.6970   0.02155   0.01630  -0.0830  0.8745  0.0257  -6.1062   0.0000   0.0000   0.0000   0.1176
  -9.750  -0.6729   0.02084   0.01544  -0.0828  0.8707  0.0263  -5.8924   0.0000   0.0000   0.0000   0.1138
  -9.500  -0.6481   0.02018   0.01465  -0.0827  0.8667  0.0269  -5.6812   0.0000   0.0000   0.0000   0.1095
  -9.250  -0.6232   0.01958   0.01389  -0.0824  0.8636  0.0273  -5.4722   0.0000   0.0000   0.0000   0.1049
  -9.000  -0.6010   0.01808   0.01231  -0.0822  0.8595  0.0282  -5.2975   0.0000   0.0000   0.0000   0.1004
  -8.750  -0.5756   0.01752   0.01171  -0.0821  0.8562  0.0289  -5.0791   0.0000   0.0000   0.0000   0.0947
  -8.500  -0.5493   0.01707   0.01121  -0.0821  0.8527  0.0297  -4.8599   0.0000   0.0000   0.0000   0.0880
  -8.250  -0.5228   0.01658   0.01065  -0.0820  0.8490  0.0306  -4.6488   0.0000   0.0000   0.0000   0.0806
  -8.000  -0.4966   0.01608   0.01004  -0.0818  0.8458  0.0315  -4.4546   0.0000   0.0000   0.0000   0.0727
  -7.750  -0.4695   0.01563   0.00951  -0.0817  0.8417  0.0322  -4.2619   0.0000   0.0000   0.0000   0.0632
  -7.500  -0.4441   0.01483   0.00863  -0.0815  0.8382  0.0332  -4.0873   0.0000   0.0000   0.0000   0.0537
  -7.250  -0.4177   0.01429   0.00807  -0.0815  0.8348  0.0344  -3.8980   0.0000   0.0000   0.0000   0.0421
  -7.000  -0.3904   0.01391   0.00766  -0.0814  0.8309  0.0357  -3.7072   0.0000   0.0000   0.0000   0.0284
  -6.750  -0.3633   0.01354   0.00721  -0.0813  0.8278  0.0371  -3.5348   0.0000   0.0000   0.0000   0.0129
  -6.500  -0.3353   0.01322   0.00684  -0.0813  0.8237  0.0382  -3.3623   0.0000   0.0000   0.0000  -0.0061
  -6.250  -0.3090   0.01257   0.00617  -0.0812  0.8203  0.0404  -3.2051   0.0000   0.0000   0.0000  -0.0268
  -6.000  -0.2811   0.01228   0.00586  -0.0812  0.8169  0.0427  -3.0441   0.0000   0.0000   0.0000  -0.0534
  -5.750  -0.2528   0.01205   0.00557  -0.0813  0.8130  0.0449  -2.8871   0.0000   0.0000   0.0000  -0.0865
  -5.500  -0.2257   0.01159   0.00510  -0.0812  0.8097  0.0483  -2.7385   0.0000   0.0000   0.0000  -0.1256
  -5.250  -0.1972   0.01137   0.00486  -0.0812  0.8053  0.0515  -2.5873   0.0000   0.0000   0.0000  -0.1790
  -5.000  -0.1694   0.01103   0.00450  -0.0812  0.8017  0.0554  -2.4490   0.0000   0.0000   0.0000  -0.2481
  -4.750  -0.1409   0.01083   0.00429  -0.0813  0.7979  0.0594  -2.3074   0.0000   0.0000   0.0000  -0.3480
  -4.500  -0.1128   0.01054   0.00401  -0.0813  0.7939  0.0647  -2.1702   0.0000   0.0000   0.0000  -0.4958
  -4.250  -0.0844   0.01031   0.00377  -0.0814  0.7902  0.0709  -2.0344   0.0000   0.0000   0.0000  -0.7445
  -4.000  -0.0559   0.01008   0.00358  -0.0815  0.7859  0.0791  -1.8999   0.0000   0.0000   0.0000  -1.2502
  -3.750  -0.0274   0.00988   0.00339  -0.0815  0.7824  0.0896  -1.7764   0.0000   0.0000   0.0000  -2.8007
  -3.500   0.0012   0.00967   0.00322  -0.0816  0.7775  0.1019  -1.6543   0.0000   0.0000   0.0000  70.8713
  -3.250   0.0296   0.00947   0.00305  -0.0817  0.7737  0.1172  -1.5339   0.0000   0.0000   0.0000   3.0724
  -3.000   0.0582   0.00927   0.00292  -0.0818  0.7685  0.1341  -1.4154   0.0000   0.0000   0.0000   1.6829
  -2.750   0.0867   0.00908   0.00277  -0.0819  0.7646  0.1526  -1.2997   0.0000   0.0000   0.0000   1.2107
  -2.500   0.1154   0.00888   0.00267  -0.0820  0.7593  0.1775  -1.1861   0.0000   0.0000   0.0000   0.9720
  -2.250   0.1440   0.00870   0.00256  -0.0821  0.7553  0.2056  -1.0765   0.0000   0.0000   0.0000   0.8281
  -2.000   0.1726   0.00850   0.00247  -0.0823  0.7497  0.2366  -0.9753   0.0000   0.0000   0.0000   0.7321
  -1.750   0.2011   0.00832   0.00237  -0.0824  0.7446  0.2708  -0.8765   0.0000   0.0000   0.0000   0.6633
  -1.500   0.2296   0.00811   0.00229  -0.0825  0.7391  0.3140  -0.7801   0.0000   0.0000   0.0000   0.6118
  -1.250   0.2580   0.00788   0.00223  -0.0826  0.7334  0.3670  -0.7024   0.0000   0.0000   0.0000   0.5718
  -1.000   0.2859   0.00759   0.00217  -0.0827  0.7281  0.4419  -0.6412   0.0000   0.0000   0.0000   0.5399
  -0.750   0.3136   0.00728   0.00215  -0.0827  0.7217  0.5342  -0.6609   0.0000   0.0000   0.0000   0.5138
  -0.500   0.3413   0.00705   0.00215  -0.0826  0.7156  0.6102  -0.6815   0.0000   0.0000   0.0000   0.4916
  -0.250   0.3688   0.00688   0.00216  -0.0824  0.7096  0.6793  -0.7035   0.0000   0.0000   0.0000   0.4724
   0.000   0.3964   0.00676   0.00216  -0.0822  0.7025  0.7292  -0.7289   0.0000   0.0000   0.0000   0.4558
   0.250   0.4239   0.00668   0.00217  -0.0819  0.6947  0.7685  -0.7545   0.0000   0.0000   0.0000   0.4412
   0.500   0.4512   0.00661   0.00218  -0.0815  0.6865  0.8028  -0.7808   0.0000   0.0000   0.0000   0.4284
   0.750   0.4779   0.00656   0.00220  -0.0810  0.6777  0.8372  -0.8069   0.0000   0.0000   0.0000   0.4168
   1.000   0.5036   0.00652   0.00222  -0.0802  0.6688  0.8729  -0.8326   0.0000   0.0000   0.0000   0.4063
   1.250   0.5288   0.00650   0.00224  -0.0793  0.6603  0.9062  -0.8597   0.0000   0.0000   0.0000   0.3967
   1.500   0.5546   0.00648   0.00226  -0.0785  0.6516  0.9404  -0.8873   0.0000   0.0000   0.0000   0.3879
   1.750   0.5883   0.00650   0.00225  -0.0795  0.6419  0.9713  -0.9236   0.0000   0.0000   0.0000   0.3812
   2.000   0.6284   0.00655   0.00225  -0.0820  0.6309  0.9946  -0.9679   0.0000   0.0000   0.0000   0.3764
   2.250   0.6593   0.00663   0.00227  -0.0827  0.6191  1.0000  -1.0063   0.0000   0.0000   0.0000   0.3710
   2.500   0.6865   0.00673   0.00231  -0.0826  0.6061  1.0000  -1.0433   0.0000   0.0000   0.0000   0.3656
   2.750   0.7136   0.00686   0.00236  -0.0824  0.5930  1.0000  -1.0809   0.0000   0.0000   0.0000   0.3606
   3.000   0.7409   0.00698   0.00243  -0.0823  0.5797  1.0000  -1.1200   0.0000   0.0000   0.0000   0.3559
   3.250   0.7682   0.00713   0.00251  -0.0822  0.5669  1.0000  -1.1607   0.0000   0.0000   0.0000   0.3516
   3.500   0.7954   0.00728   0.00260  -0.0821  0.5532  1.0000  -1.2067   0.0000   0.0000   0.0000   0.3475
   3.750   0.8224   0.00745   0.00271  -0.0820  0.5396  1.0000  -1.2529   0.0000   0.0000   0.0000   0.3437
   4.000   0.8495   0.00763   0.00283  -0.0819  0.5251  1.0000  -1.2994   0.0000   0.0000   0.0000   0.3401
   4.250   0.8762   0.00783   0.00296  -0.0817  0.5097  1.0000  -1.3500   0.0000   0.0000   0.0000   0.3367
   4.500   0.9026   0.00805   0.00311  -0.0815  0.4932  1.0000  -1.4031   0.0000   0.0000   0.0000   0.3335
   4.750   0.9291   0.00827   0.00326  -0.0813  0.4768  1.0000  -1.4593   0.0000   0.0000   0.0000   0.3304
   5.000   0.9554   0.00850   0.00343  -0.0811  0.4608  1.0000  -1.5218   0.0000   0.0000   0.0000   0.3275
   5.250   0.9814   0.00875   0.00362  -0.0809  0.4438  1.0000  -1.5861   0.0000   0.0000   0.0000   0.3247
   5.500   1.0071   0.00903   0.00382  -0.0806  0.4262  1.0000  -1.6535   0.0000   0.0000   0.0000   0.3220
   5.750   1.0325   0.00932   0.00404  -0.0803  0.4087  1.0000  -1.7215   0.0000   0.0000   0.0000   0.3195
   6.000   1.0576   0.00963   0.00428  -0.0800  0.3902  1.0000  -1.7916   0.0000   0.0000   0.0000   0.3170
   6.250   1.0823   0.00996   0.00453  -0.0796  0.3713  1.0000  -1.8698   0.0000   0.0000   0.0000   0.3146
   6.500   1.1068   0.01031   0.00480  -0.0791  0.3525  1.0000  -1.9693   0.0000   0.0000   0.0000   0.3123
   6.750   1.1309   0.01067   0.00509  -0.0787  0.3343  1.0000  -2.0719   0.0000   0.0000   0.0000   0.3100
   7.000   1.1545   0.01107   0.00540  -0.0781  0.3149  1.0000  -2.1748   0.0000   0.0000   0.0000   0.3078
   7.250   1.1775   0.01149   0.00574  -0.0776  0.2956  1.0000  -2.2784   0.0000   0.0000   0.0000   0.3056
   7.500   1.2004   0.01192   0.00609  -0.0769  0.2778  1.0000  -2.3853   0.0000   0.0000   0.0000   0.3035
   7.750   1.2228   0.01236   0.00646  -0.0763  0.2610  1.0000  -2.5093   0.0000   0.0000   0.0000   0.3015
   8.000   1.2444   0.01284   0.00686  -0.0755  0.2436  1.0000  -2.6334   0.0000   0.0000   0.0000   0.2994
   8.250   1.2653   0.01335   0.00728  -0.0746  0.2267  1.0000  -2.7577   0.0000   0.0000   0.0000   0.2974
   8.500   1.2856   0.01388   0.00773  -0.0737  0.2101  1.0000  -2.8821   0.0000   0.0000   0.0000   0.2953
   9.000   1.3246   0.01495   0.00867  -0.0716  0.1802  1.0000  -3.1322   0.0000   0.0000   0.0000   0.2914
   9.250   1.3414   0.01552   0.00918  -0.0701  0.1682  1.0000  -3.2523   0.0000   0.0000   0.0000   0.2892
   9.500   1.3581   0.01611   0.00974  -0.0687  0.1575  1.0000  -3.3733   0.0000   0.0000   0.0000   0.2871
   9.750   1.3745   0.01674   0.01034  -0.0673  0.1476  1.0000  -3.4951   0.0000   0.0000   0.0000   0.2851
  10.000   1.3907   0.01740   0.01098  -0.0660  0.1379  1.0000  -3.6173   0.0000   0.0000   0.0000   0.2832
  10.250   1.4064   0.01811   0.01167  -0.0646  0.1284  1.0000  -3.7393   0.0000   0.0000   0.0000   0.2813
  10.500   1.4215   0.01889   0.01242  -0.0633  0.1193  1.0000  -3.8606   0.0000   0.0000   0.0000   0.2795
  10.750   1.4359   0.01972   0.01323  -0.0620  0.1106  1.0000  -3.9810   0.0000   0.0000   0.0000   0.2777
  11.000   1.4497   0.02061   0.01410  -0.0607  0.1024  1.0000  -4.1005   0.0000   0.0000   0.0000   0.2760
  11.250   1.4628   0.02156   0.01504  -0.0594  0.0950  1.0000  -4.2189   0.0000   0.0000   0.0000   0.2743
  11.500   1.4755   0.02257   0.01603  -0.0581  0.0883  1.0000  -4.3366   0.0000   0.0000   0.0000   0.2726
  11.750   1.4873   0.02365   0.01711  -0.0567  0.0818  1.0000  -4.4521   0.0000   0.0000   0.0000   0.2709
  12.000   1.4988   0.02478   0.01823  -0.0554  0.0759  1.0000  -4.5673   0.0000   0.0000   0.0000   0.2693
  12.250   1.5104   0.02590   0.01938  -0.0542  0.0705  1.0000  -4.6833   0.0000   0.0000   0.0000   0.2678
  12.500   1.5201   0.02720   0.02068  -0.0529  0.0656  1.0000  -4.7986   0.0000   0.0000   0.0000   0.2662
  12.750   1.5293   0.02856   0.02205  -0.0516  0.0608  1.0000  -4.9135   0.0000   0.0000   0.0000   0.2647
  13.000   1.5385   0.02993   0.02346  -0.0504  0.0568  1.0000  -5.0284   0.0000   0.0000   0.0000   0.2632
  13.250   1.5448   0.03157   0.02510  -0.0491  0.0529  1.0000  -5.1333   0.0000   0.0000   0.0000   0.2617
  13.500   1.5531   0.03308   0.02667  -0.0479  0.0498  1.0000  -5.2449   0.0000   0.0000   0.0000   0.2603
  13.750   1.5584   0.03486   0.02847  -0.0467  0.0468  1.0000  -5.3462   0.0000   0.0000   0.0000   0.2589
  14.000   1.5630   0.03675   0.03042  -0.0456  0.0443  1.0000  -5.4432   0.0000   0.0000   0.0000   0.2576
  14.250   1.5690   0.03855   0.03228  -0.0446  0.0422  1.0000  -5.5550   0.0000   0.0000   0.0000   0.2564
  14.500   1.5715   0.04072   0.03448  -0.0436  0.0402  1.0000  -5.6551   0.0000   0.0000   0.0000   0.2551
  14.750   1.5710   0.04327   0.03709  -0.0426  0.0385  1.0000  -5.7403   0.0000   0.0000   0.0000   0.2540
  15.000   1.5761   0.04535   0.03926  -0.0420  0.0373  1.0000  -5.8504   0.0000   0.0000   0.0000   0.2529
  15.250   1.5789   0.04772   0.04172  -0.0414  0.0360  1.0000  -5.9513   0.0000   0.0000   0.0000   0.2520
  15.500   1.5794   0.05042   0.04447  -0.0409  0.0348  1.0000  -6.0774   0.0000   0.0000   0.0000   0.2511
  15.750   1.5757   0.05366   0.04777  -0.0405  0.0337  1.0000  -6.1801   0.0000   0.0000   0.0000   0.2503
  16.000   1.5695   0.05731   0.05151  -0.0403  0.0327  1.0000  -6.2651   0.0000   0.0000   0.0000   0.2497
  16.250   1.5717   0.06004   0.05434  -0.0402  0.0321  1.0000  -6.4026   0.0000   0.0000   0.0000   0.2491
  16.500   1.5714   0.06312   0.05753  -0.0403  0.0314  1.0000  -6.5244   0.0000   0.0000   0.0000   0.2485
  16.750   1.5696   0.06646   0.06096  -0.0404  0.0307  1.0000  -6.6373   0.0000   0.0000   0.0000   0.2481
  17.000   1.5667   0.07000   0.06459  -0.0408  0.0301  1.0000  -6.7430   0.0000   0.0000   0.0000   0.2477
  17.250   1.5623   0.07379   0.06848  -0.0412  0.0296  1.0000  -6.8389   0.0000   0.0000   0.0000   0.2475
  17.500   1.5561   0.07791   0.07269  -0.0419  0.0291  1.0000  -6.9210   0.0000   0.0000   0.0000   0.2474
  17.750   1.5475   0.08240   0.07726  -0.0427  0.0286  1.0000  -6.9861   0.0000   0.0000   0.0000   0.2475
  18.000   1.5365   0.08731   0.08225  -0.0437  0.0280  1.0000  -7.0308   0.0000   0.0000   0.0000   0.2478
  18.250   1.5229   0.09257   0.08759  -0.0449  0.0275  1.0000  -7.0538   0.0000   0.0000   0.0000   0.2482
  18.500   1.5200   0.09647   0.09161  -0.0460  0.0273  1.0000  -7.1512   0.0000   0.0000   0.0000   0.2483
  18.750   1.5160   0.10055   0.09580  -0.0472  0.0269  1.0000  -7.2396   0.0000   0.0000   0.0000   0.2486
  19.000   1.5115   0.10474   0.10008  -0.0485  0.0266  1.0000  -7.3219   0.0000   0.0000   0.0000   0.2489
  19.250   1.5067   0.10900   0.10445  -0.0500  0.0263  1.0000  -7.4003   0.0000   0.0000   0.0000   0.2493
  19.500   1.5021   0.11327   0.10881  -0.0516  0.0259  1.0000  -7.4779   0.0000   0.0000   0.0000   0.2499
  19.750   1.4975   0.11754   0.11317  -0.0533  0.0255  1.0000  -7.5541   0.0000   0.0000   0.0000   0.2505
  20.000   1.4933   0.12181   0.11752  -0.0551  0.0252  1.0000  -7.6305   0.0000   0.0000   0.0000   0.2512


