xflr5 v6.61

 Calculated polar for: QX0126

 1 1 Reynolds number fixed          Mach number fixed         

 xtrf =   1.000 (top)        1.000 (bottom)
 Mach =   0.000     Re =     0.420 e 6     Ncrit =   9.000

  alpha     CL        CD       CDp       Cm    Top Xtr Bot Xtr   Cpmin    Chinge    XCp    
 ------- -------- --------- --------- -------- ------- ------- -------- --------- ---------
 -10.000  -0.6589   0.02807   0.02320  -0.0881  0.9028  0.0296  -5.6556   0.0000   0.0000   0.0000   0.1029
  -9.750  -0.6394   0.02681   0.02175  -0.0877  0.8983  0.0303  -5.4812   0.0000   0.0000   0.0000   0.0996
  -9.500  -0.6194   0.02538   0.02006  -0.0874  0.8934  0.0311  -5.3302   0.0000   0.0000   0.0000   0.0958
  -9.250  -0.5983   0.02410   0.01852  -0.0869  0.8892  0.0318  -5.1754   0.0000   0.0000   0.0000   0.0916
  -9.000  -0.5748   0.02328   0.01747  -0.0867  0.8847  0.0324  -4.9975   0.0000   0.0000   0.0000   0.0862
  -8.750  -0.5545   0.02138   0.01541  -0.0863  0.8812  0.0334  -4.8499   0.0000   0.0000   0.0000   0.0815
  -8.500  -0.5296   0.02061   0.01460  -0.0862  0.8768  0.0343  -4.6495   0.0000   0.0000   0.0000   0.0743
  -8.250  -0.5050   0.01990   0.01380  -0.0859  0.8733  0.0352  -4.4581   0.0000   0.0000   0.0000   0.0671
  -8.000  -0.4795   0.01916   0.01296  -0.0857  0.8691  0.0362  -4.2757   0.0000   0.0000   0.0000   0.0582
  -7.750  -0.4540   0.01850   0.01216  -0.0854  0.8653  0.0373  -4.1031   0.0000   0.0000   0.0000   0.0488
  -7.500  -0.4276   0.01803   0.01154  -0.0852  0.8614  0.0383  -3.9264   0.0000   0.0000   0.0000   0.0375
  -7.250  -0.4033   0.01685   0.01030  -0.0850  0.8573  0.0397  -3.7717   0.0000   0.0000   0.0000   0.0261
  -7.000  -0.3774   0.01629   0.00970  -0.0847  0.8540  0.0410  -3.5946   0.0000   0.0000   0.0000   0.0121
  -6.750  -0.3506   0.01579   0.00917  -0.0846  0.8496  0.0426  -3.4287   0.0000   0.0000   0.0000  -0.0051
  -6.500  -0.3239   0.01537   0.00864  -0.0843  0.8462  0.0443  -3.2694   0.0000   0.0000   0.0000  -0.0244
  -6.250  -0.2978   0.01468   0.00794  -0.0842  0.8418  0.0465  -3.1174   0.0000   0.0000   0.0000  -0.0473
  -6.000  -0.2709   0.01429   0.00752  -0.0841  0.8381  0.0490  -2.9640   0.0000   0.0000   0.0000  -0.0754
  -5.750  -0.2433   0.01396   0.00712  -0.0840  0.8343  0.0517  -2.8186   0.0000   0.0000   0.0000  -0.1108
  -5.500  -0.2168   0.01341   0.00658  -0.0838  0.8303  0.0550  -2.6778   0.0000   0.0000   0.0000  -0.1534
  -5.250  -0.1892   0.01314   0.00625  -0.0837  0.8269  0.0589  -2.5323   0.0000   0.0000   0.0000  -0.2103
  -5.000  -0.1619   0.01272   0.00586  -0.0837  0.8222  0.0633  -2.4000   0.0000   0.0000   0.0000  -0.2864
  -4.750  -0.1341   0.01250   0.00556  -0.0835  0.8188  0.0680  -2.2657   0.0000   0.0000   0.0000  -0.3949
  -4.500  -0.1064   0.01215   0.00526  -0.0835  0.8140  0.0739  -2.1336   0.0000   0.0000   0.0000  -0.5612
  -4.250  -0.0786   0.01186   0.00498  -0.0834  0.8105  0.0809  -2.0026   0.0000   0.0000   0.0000  -0.8443
  -4.000  -0.0506   0.01161   0.00475  -0.0835  0.8059  0.0903  -1.8727   0.0000   0.0000   0.0000  -1.4477
  -3.750  -0.0226   0.01135   0.00448  -0.0834  0.8020  0.1026  -1.7537   0.0000   0.0000   0.0000  -3.5384
  -3.500   0.0054   0.01109   0.00431  -0.0835  0.7976  0.1177  -1.6347   0.0000   0.0000   0.0000  16.1364
  -3.250   0.0335   0.01085   0.00411  -0.0834  0.7933  0.1347  -1.5174   0.0000   0.0000   0.0000   2.7967
  -3.000   0.0616   0.01061   0.00393  -0.0835  0.7887  0.1536  -1.4020   0.0000   0.0000   0.0000   1.6327
  -2.750   0.0897   0.01037   0.00377  -0.0835  0.7841  0.1782  -1.2882   0.0000   0.0000   0.0000   1.1972
  -2.500   0.1179   0.01014   0.00364  -0.0835  0.7792  0.2074  -1.1767   0.0000   0.0000   0.0000   0.9699
  -2.250   0.1461   0.00991   0.00350  -0.0836  0.7747  0.2411  -1.0705   0.0000   0.0000   0.0000   0.8299
  -2.000   0.1742   0.00969   0.00340  -0.0836  0.7696  0.2792  -0.9708   0.0000   0.0000   0.0000   0.7356
  -1.750   0.2023   0.00942   0.00328  -0.0837  0.7652  0.3292  -0.8732   0.0000   0.0000   0.0000   0.6675
  -1.500   0.2300   0.00913   0.00321  -0.0837  0.7594  0.3919  -0.7785   0.0000   0.0000   0.0000   0.6166
  -1.250   0.2574   0.00877   0.00312  -0.0836  0.7543  0.4774  -0.7018   0.0000   0.0000   0.0000   0.5766
  -1.000   0.2844   0.00844   0.00309  -0.0834  0.7485  0.5705  -0.6386   0.0000   0.0000   0.0000   0.5442
  -0.750   0.3112   0.00819   0.00309  -0.0831  0.7426  0.6487  -0.6580   0.0000   0.0000   0.0000   0.5171
  -0.500   0.3379   0.00801   0.00307  -0.0825  0.7373  0.7136  -0.6784   0.0000   0.0000   0.0000   0.4937
  -0.250   0.3647   0.00789   0.00308  -0.0820  0.7307  0.7615  -0.7000   0.0000   0.0000   0.0000   0.4739
   0.000   0.3911   0.00779   0.00308  -0.0814  0.7242  0.8013  -0.7247   0.0000   0.0000   0.0000   0.4566
   0.250   0.4173   0.00772   0.00306  -0.0806  0.7180  0.8370  -0.7495   0.0000   0.0000   0.0000   0.4414
   0.500   0.4425   0.00764   0.00303  -0.0796  0.7110  0.8726  -0.7745   0.0000   0.0000   0.0000   0.4277
   0.750   0.4670   0.00757   0.00302  -0.0784  0.7030  0.9086  -0.7993   0.0000   0.0000   0.0000   0.4153
   1.250   0.5315   0.00749   0.00292  -0.0795  0.6856  0.9729  -0.8604   0.0000   0.0000   0.0000   0.3963
   1.500   0.5738   0.00749   0.00286  -0.0824  0.6764  0.9948  -0.8983   0.0000   0.0000   0.0000   0.3901
   1.750   0.6054   0.00753   0.00284  -0.0833  0.6674  1.0000  -0.9346   0.0000   0.0000   0.0000   0.3837
   2.000   0.6320   0.00759   0.00285  -0.0830  0.6581  1.0000  -0.9692   0.0000   0.0000   0.0000   0.3773
   2.250   0.6590   0.00767   0.00286  -0.0828  0.6481  1.0000  -1.0047   0.0000   0.0000   0.0000   0.3714
   2.500   0.6861   0.00775   0.00289  -0.0827  0.6369  1.0000  -1.0416   0.0000   0.0000   0.0000   0.3659
   2.750   0.7133   0.00784   0.00293  -0.0825  0.6247  1.0000  -1.0792   0.0000   0.0000   0.0000   0.3608
   3.000   0.7403   0.00795   0.00297  -0.0823  0.6119  1.0000  -1.1180   0.0000   0.0000   0.0000   0.3560
   3.250   0.7674   0.00807   0.00304  -0.0822  0.5986  1.0000  -1.1582   0.0000   0.0000   0.0000   0.3516
   3.500   0.7944   0.00821   0.00312  -0.0820  0.5859  1.0000  -1.2040   0.0000   0.0000   0.0000   0.3475
   3.750   0.8214   0.00836   0.00322  -0.0818  0.5726  1.0000  -1.2500   0.0000   0.0000   0.0000   0.3436
   4.000   0.8481   0.00853   0.00333  -0.0816  0.5587  1.0000  -1.2963   0.0000   0.0000   0.0000   0.3400
   4.250   0.8747   0.00872   0.00346  -0.0814  0.5445  1.0000  -1.3468   0.0000   0.0000   0.0000   0.3365
   4.750   0.9271   0.00914   0.00376  -0.0809  0.5135  1.0000  -1.4553   0.0000   0.0000   0.0000   0.3301
   5.000   0.9530   0.00938   0.00393  -0.0806  0.4967  1.0000  -1.5167   0.0000   0.0000   0.0000   0.3271
   5.250   0.9787   0.00963   0.00413  -0.0802  0.4805  1.0000  -1.5796   0.0000   0.0000   0.0000   0.3243
   5.500   1.0040   0.00990   0.00433  -0.0799  0.4640  1.0000  -1.6465   0.0000   0.0000   0.0000   0.3216
   5.750   1.0290   0.01019   0.00456  -0.0795  0.4463  1.0000  -1.7137   0.0000   0.0000   0.0000   0.3189
   6.000   1.0536   0.01050   0.00481  -0.0790  0.4284  1.0000  -1.7828   0.0000   0.0000   0.0000   0.3164
   6.250   1.0779   0.01083   0.00507  -0.0785  0.4102  1.0000  -1.8601   0.0000   0.0000   0.0000   0.3140
   6.500   1.1018   0.01119   0.00536  -0.0780  0.3913  1.0000  -1.9528   0.0000   0.0000   0.0000   0.3116
   6.750   1.1252   0.01157   0.00567  -0.0774  0.3721  1.0000  -2.0536   0.0000   0.0000   0.0000   0.3092
   7.000   1.1483   0.01197   0.00600  -0.0768  0.3532  1.0000  -2.1553   0.0000   0.0000   0.0000   0.3070
   7.250   1.1708   0.01240   0.00636  -0.0761  0.3345  1.0000  -2.2572   0.0000   0.0000   0.0000   0.3048
   7.500   1.1925   0.01287   0.00674  -0.0753  0.3150  1.0000  -2.3591   0.0000   0.0000   0.0000   0.3026
   7.750   1.2137   0.01335   0.00715  -0.0745  0.2962  1.0000  -2.4760   0.0000   0.0000   0.0000   0.3004
   8.000   1.2345   0.01386   0.00759  -0.0735  0.2782  1.0000  -2.5969   0.0000   0.0000   0.0000   0.2983
   8.250   1.2544   0.01439   0.00805  -0.0725  0.2612  1.0000  -2.7177   0.0000   0.0000   0.0000   0.2962
   8.500   1.2736   0.01495   0.00854  -0.0714  0.2449  1.0000  -2.8381   0.0000   0.0000   0.0000   0.2941
   8.750   1.2916   0.01556   0.00908  -0.0702  0.2288  1.0000  -2.9571   0.0000   0.0000   0.0000   0.2920
   9.000   1.3080   0.01615   0.00962  -0.0687  0.2135  1.0000  -3.0733   0.0000   0.0000   0.0000   0.2898
   9.250   1.3238   0.01679   0.01021  -0.0671  0.1986  1.0000  -3.1894   0.0000   0.0000   0.0000   0.2876
   9.500   1.3386   0.01752   0.01087  -0.0656  0.1853  1.0000  -3.3038   0.0000   0.0000   0.0000   0.2855
   9.750   1.3542   0.01823   0.01156  -0.0642  0.1728  1.0000  -3.4213   0.0000   0.0000   0.0000   0.2836
  10.000   1.3687   0.01903   0.01233  -0.0628  0.1613  1.0000  -3.5370   0.0000   0.0000   0.0000   0.2816
  10.250   1.3824   0.01991   0.01316  -0.0614  0.1509  1.0000  -3.6513   0.0000   0.0000   0.0000   0.2797
  10.500   1.3958   0.02082   0.01405  -0.0600  0.1412  1.0000  -3.7658   0.0000   0.0000   0.0000   0.2779
  10.750   1.4097   0.02173   0.01495  -0.0587  0.1317  1.0000  -3.8824   0.0000   0.0000   0.0000   0.2761
  11.000   1.4228   0.02270   0.01592  -0.0574  0.1227  1.0000  -3.9976   0.0000   0.0000   0.0000   0.2744
  11.250   1.4350   0.02376   0.01697  -0.0561  0.1142  1.0000  -4.1108   0.0000   0.0000   0.0000   0.2727
  11.500   1.4463   0.02490   0.01810  -0.0548  0.1062  1.0000  -4.2216   0.0000   0.0000   0.0000   0.2711
  11.750   1.4564   0.02615   0.01933  -0.0534  0.0988  1.0000  -4.3294   0.0000   0.0000   0.0000   0.2694
  12.000   1.4667   0.02741   0.02060  -0.0521  0.0919  1.0000  -4.4380   0.0000   0.0000   0.0000   0.2678
  12.250   1.4767   0.02871   0.02193  -0.0509  0.0854  1.0000  -4.5457   0.0000   0.0000   0.0000   0.2663
  12.500   1.4852   0.03015   0.02339  -0.0496  0.0796  1.0000  -4.6510   0.0000   0.0000   0.0000   0.2648
  12.750   1.4912   0.03182   0.02505  -0.0483  0.0744  1.0000  -4.7516   0.0000   0.0000   0.0000   0.2632
  13.000   1.4994   0.03334   0.02661  -0.0471  0.0692  1.0000  -4.8596   0.0000   0.0000   0.0000   0.2618
  13.250   1.5050   0.03511   0.02842  -0.0459  0.0649  1.0000  -4.9579   0.0000   0.0000   0.0000   0.2604
  13.500   1.5097   0.03700   0.03033  -0.0448  0.0609  1.0000  -5.0532   0.0000   0.0000   0.0000   0.2591
  13.750   1.5135   0.03901   0.03240  -0.0437  0.0576  1.0000  -5.1438   0.0000   0.0000   0.0000   0.2577
  14.000   1.5172   0.04107   0.03451  -0.0427  0.0544  1.0000  -5.2345   0.0000   0.0000   0.0000   0.2565
  14.250   1.5157   0.04371   0.03717  -0.0417  0.0519  1.0000  -5.3034   0.0000   0.0000   0.0000   0.2553
  14.500   1.5209   0.04577   0.03934  -0.0410  0.0495  1.0000  -5.4032   0.0000   0.0000   0.0000   0.2543
  14.750   1.5223   0.04829   0.04192  -0.0403  0.0473  1.0000  -5.4934   0.0000   0.0000   0.0000   0.2533
  15.000   1.5175   0.05156   0.04522  -0.0398  0.0456  1.0000  -5.5551   0.0000   0.0000   0.0000   0.2524
  15.250   1.5194   0.05418   0.04794  -0.0394  0.0441  1.0000  -5.6445   0.0000   0.0000   0.0000   0.2516
  15.500   1.5209   0.05692   0.05078  -0.0392  0.0426  1.0000  -5.7324   0.0000   0.0000   0.0000   0.2509
  15.750   1.5205   0.05995   0.05390  -0.0391  0.0413  1.0000  -5.8123   0.0000   0.0000   0.0000   0.2503
  16.000   1.5168   0.06343   0.05744  -0.0391  0.0401  1.0000  -5.8767   0.0000   0.0000   0.0000   0.2498
  16.250   1.5085   0.06752   0.06158  -0.0392  0.0390  1.0000  -5.9157   0.0000   0.0000   0.0000   0.2494
  16.500   1.5070   0.07087   0.06503  -0.0394  0.0382  1.0000  -6.0174   0.0000   0.0000   0.0000   0.2490
  16.750   1.5061   0.07420   0.06848  -0.0398  0.0373  1.0000  -6.1266   0.0000   0.0000   0.0000   0.2487
  17.000   1.5040   0.07775   0.07213  -0.0403  0.0364  1.0000  -6.2276   0.0000   0.0000   0.0000   0.2485
  17.250   1.5010   0.08145   0.07592  -0.0409  0.0357  1.0000  -6.3233   0.0000   0.0000   0.0000   0.2483
  17.500   1.4972   0.08530   0.07985  -0.0416  0.0350  1.0000  -6.4137   0.0000   0.0000   0.0000   0.2483
  17.750   1.4924   0.08930   0.08393  -0.0424  0.0343  1.0000  -6.4958   0.0000   0.0000   0.0000   0.2483
  18.000   1.4867   0.09339   0.08806  -0.0432  0.0337  1.0000  -6.5705   0.0000   0.0000   0.0000   0.2484
  18.250   1.4809   0.09723   0.09194  -0.0438  0.0329  1.0000  -6.6418   0.0000   0.0000   0.0000   0.2483
  18.500   1.4791   0.10097   0.09580  -0.0448  0.0325  1.0000  -6.7376   0.0000   0.0000   0.0000   0.2484
  18.750   1.4770   0.10478   0.09974  -0.0460  0.0321  1.0000  -6.8307   0.0000   0.0000   0.0000   0.2486
  19.000   1.4749   0.10862   0.10369  -0.0473  0.0316  1.0000  -6.9221   0.0000   0.0000   0.0000   0.2489
  19.250   1.4728   0.11245   0.10762  -0.0487  0.0311  1.0000  -7.0128   0.0000   0.0000   0.0000   0.2493
  19.500   1.4709   0.11627   0.11153  -0.0501  0.0306  1.0000  -7.1034   0.0000   0.0000   0.0000   0.2497
  19.750   1.4692   0.12006   0.11541  -0.0517  0.0301  1.0000  -7.1949   0.0000   0.0000   0.0000   0.2502
  20.000   1.4679   0.12381   0.11923  -0.0534  0.0296  1.0000  -7.2879   0.0000   0.0000   0.0000   0.2507


