xflr5 v6.61

 Calculated polar for: QX0126

 1 1 Reynolds number fixed          Mach number fixed         

 xtrf =   1.000 (top)        1.000 (bottom)
 Mach =   0.000     Re =     0.240 e 6     Ncrit =   9.000

  alpha     CL        CD       CDp       Cm    Top Xtr Bot Xtr   Cpmin    Chinge    XCp    
 ------- -------- --------- --------- -------- ------- ------- -------- --------- ---------
 -10.000  -0.4835   0.05787   0.05442  -0.0882  0.9802  0.0450  -3.8546   0.0000   0.0000   0.0000   0.0526
  -9.750  -0.4649   0.05555   0.05220  -0.0898  0.9742  0.0459  -3.6926   0.0000   0.0000   0.0000   0.0419
  -9.500  -0.4547   0.05229   0.04884  -0.0938  0.9655  0.0464  -3.6268   0.0000   0.0000   0.0000   0.0291
  -9.250  -0.4412   0.05025   0.04674  -0.0958  0.9577  0.0474  -3.5194   0.0000   0.0000   0.0000   0.0184
  -9.000  -0.4956   0.03502   0.02993  -0.1007  0.9417  0.0445  -4.2038   0.0000   0.0000   0.0000   0.0331
  -8.750  -0.4848   0.03197   0.02634  -0.1001  0.9355  0.0449  -4.1818   0.0000   0.0000   0.0000   0.0297
  -8.500  -0.4709   0.02909   0.02308  -0.0995  0.9290  0.0455  -4.1212   0.0000   0.0000   0.0000   0.0249
  -8.250  -0.4504   0.02761   0.02152  -0.0992  0.9239  0.0466  -3.9692   0.0000   0.0000   0.0000   0.0161
  -8.000  -0.4282   0.02669   0.02053  -0.0987  0.9190  0.0479  -3.8050   0.0000   0.0000   0.0000   0.0058
  -7.750  -0.4067   0.02541   0.01903  -0.0981  0.9136  0.0493  -3.6817   0.0000   0.0000   0.0000  -0.0052
  -7.500  -0.3850   0.02402   0.01733  -0.0973  0.9092  0.0506  -3.5720   0.0000   0.0000   0.0000  -0.0168
  -7.250  -0.3619   0.02292   0.01590  -0.0967  0.9036  0.0519  -3.4537   0.0000   0.0000   0.0000  -0.0315
  -7.000  -0.3391   0.02161   0.01450  -0.0960  0.8997  0.0536  -3.3181   0.0000   0.0000   0.0000  -0.0477
  -6.750  -0.3143   0.02096   0.01383  -0.0957  0.8941  0.0557  -3.1671   0.0000   0.0000   0.0000  -0.0695
  -6.500  -0.2897   0.02023   0.01295  -0.0950  0.8903  0.0580  -3.0366   0.0000   0.0000   0.0000  -0.0935
  -6.250  -0.2645   0.01948   0.01200  -0.0945  0.8848  0.0603  -2.9129   0.0000   0.0000   0.0000  -0.1236
  -6.000  -0.2400   0.01870   0.01128  -0.0939  0.8807  0.0632  -2.7782   0.0000   0.0000   0.0000  -0.1585
  -5.750  -0.2142   0.01826   0.01074  -0.0935  0.8755  0.0672  -2.6510   0.0000   0.0000   0.0000  -0.2049
  -5.500  -0.1891   0.01762   0.01012  -0.0930  0.8715  0.0710  -2.5235   0.0000   0.0000   0.0000  -0.2612
  -5.250  -0.1630   0.01724   0.00966  -0.0926  0.8664  0.0757  -2.3964   0.0000   0.0000   0.0000  -0.3396
  -5.000  -0.1376   0.01673   0.00919  -0.0921  0.8623  0.0807  -2.2771   0.0000   0.0000   0.0000  -0.4435
  -4.750  -0.1116   0.01633   0.00877  -0.0918  0.8572  0.0870  -2.1589   0.0000   0.0000   0.0000  -0.5999
  -4.500  -0.0855   0.01596   0.00838  -0.0913  0.8527  0.0946  -2.0401   0.0000   0.0000   0.0000  -0.8510
  -4.250  -0.0597   0.01555   0.00800  -0.0909  0.8478  0.1038  -1.9213   0.0000   0.0000   0.0000  -1.3181
  -4.000  -0.0335   0.01521   0.00773  -0.0906  0.8430  0.1154  -1.8031   0.0000   0.0000   0.0000  -2.5273
  -3.750  -0.0070   0.01488   0.00741  -0.0902  0.8384  0.1304  -1.6947   0.0000   0.0000   0.0000  -12.9414
  -3.500   0.0193   0.01454   0.00714  -0.0899  0.8334  0.1481  -1.5862   0.0000   0.0000   0.0000   5.0226
  -3.250   0.0458   0.01419   0.00690  -0.0896  0.8289  0.1689  -1.4765   0.0000   0.0000   0.0000   2.2498
  -3.000   0.0725   0.01393   0.00673  -0.0894  0.8235  0.1945  -1.3682   0.0000   0.0000   0.0000   1.5082
  -2.750   0.0992   0.01359   0.00650  -0.0891  0.8194  0.2261  -1.2603   0.0000   0.0000   0.0000   1.1637
  -2.500   0.1258   0.01332   0.00638  -0.0889  0.8134  0.2669  -1.1545   0.0000   0.0000   0.0000   0.9681
  -2.250   0.1525   0.01293   0.00617  -0.0885  0.8096  0.3188  -1.0558   0.0000   0.0000   0.0000   0.8386
  -2.000   0.1785   0.01260   0.00610  -0.0883  0.8032  0.3856  -0.9613   0.0000   0.0000   0.0000   0.7507
  -1.750   0.2041   0.01218   0.00603  -0.0878  0.7980  0.4744  -0.8689   0.0000   0.0000   0.0000   0.6847
  -1.500   0.2293   0.01179   0.00597  -0.0871  0.7930  0.5756  -0.7786   0.0000   0.0000   0.0000   0.6328
  -1.250   0.2537   0.01154   0.00603  -0.0860  0.7870  0.6648  -0.7049   0.0000   0.0000   0.0000   0.5912
  -1.000   0.2784   0.01129   0.00595  -0.0847  0.7828  0.7354  -0.6361   0.0000   0.0000   0.0000   0.5553
  -0.750   0.3024   0.01118   0.00597  -0.0833  0.7760  0.7882  -0.6477   0.0000   0.0000   0.0000   0.5261
  -0.500   0.3262   0.01107   0.00594  -0.0818  0.7700  0.8324  -0.6672   0.0000   0.0000   0.0000   0.5008
  -0.250   0.3498   0.01092   0.00581  -0.0801  0.7650  0.8733  -0.6875   0.0000   0.0000   0.0000   0.4783
   0.000   0.3745   0.01085   0.00577  -0.0787  0.7580  0.9123  -0.7109   0.0000   0.0000   0.0000   0.4590
   0.250   0.4075   0.01075   0.00566  -0.0791  0.7517  0.9491  -0.7396   0.0000   0.0000   0.0000   0.4425
   0.500   0.4518   0.01060   0.00542  -0.0819  0.7467  0.9776  -0.7758   0.0000   0.0000   0.0000   0.4294
   0.750   0.5023   0.01051   0.00527  -0.0865  0.7394  0.9990  -0.8159   0.0000   0.0000   0.0000   0.4199
   1.000   0.5273   0.01047   0.00516  -0.0861  0.7316  1.0000  -0.8416   0.0000   0.0000   0.0000   0.4105
   1.250   0.5519   0.01044   0.00506  -0.0854  0.7237  1.0000  -0.8681   0.0000   0.0000   0.0000   0.4018
   1.500   0.5775   0.01041   0.00496  -0.0849  0.7156  1.0000  -0.8956   0.0000   0.0000   0.0000   0.3937
   1.750   0.6038   0.01039   0.00487  -0.0845  0.7070  1.0000  -0.9288   0.0000   0.0000   0.0000   0.3864
   2.000   0.6304   0.01038   0.00479  -0.0842  0.6980  1.0000  -0.9633   0.0000   0.0000   0.0000   0.3796
   2.250   0.6573   0.01039   0.00475  -0.0839  0.6890  1.0000  -0.9988   0.0000   0.0000   0.0000   0.3734
   2.500   0.6844   0.01042   0.00472  -0.0836  0.6798  1.0000  -1.0353   0.0000   0.0000   0.0000   0.3676
   2.750   0.7115   0.01046   0.00472  -0.0833  0.6701  1.0000  -1.0729   0.0000   0.0000   0.0000   0.3623
   3.000   0.7386   0.01051   0.00471  -0.0831  0.6596  1.0000  -1.1117   0.0000   0.0000   0.0000   0.3574
   3.250   0.7657   0.01056   0.00470  -0.0828  0.6487  1.0000  -1.1519   0.0000   0.0000   0.0000   0.3528
   3.500   0.7924   0.01063   0.00473  -0.0824  0.6362  1.0000  -1.1968   0.0000   0.0000   0.0000   0.3484
   3.750   0.8191   0.01071   0.00476  -0.0821  0.6230  1.0000  -1.2426   0.0000   0.0000   0.0000   0.3443
   4.000   0.8458   0.01082   0.00482  -0.0818  0.6102  1.0000  -1.2889   0.0000   0.0000   0.0000   0.3405
   4.250   0.8722   0.01096   0.00492  -0.0814  0.5967  1.0000  -1.3391   0.0000   0.0000   0.0000   0.3369
   4.500   0.8986   0.01111   0.00502  -0.0811  0.5833  1.0000  -1.3919   0.0000   0.0000   0.0000   0.3335
   4.750   0.9245   0.01129   0.00516  -0.0807  0.5685  1.0000  -1.4470   0.0000   0.0000   0.0000   0.3303
   5.000   0.9503   0.01149   0.00531  -0.0803  0.5535  1.0000  -1.5072   0.0000   0.0000   0.0000   0.3272
   5.250   0.9757   0.01172   0.00547  -0.0798  0.5380  1.0000  -1.5694   0.0000   0.0000   0.0000   0.3242
   5.500   1.0006   0.01197   0.00566  -0.0793  0.5211  1.0000  -1.6347   0.0000   0.0000   0.0000   0.3213
   5.750   1.0251   0.01224   0.00588  -0.0788  0.5037  1.0000  -1.7012   0.0000   0.0000   0.0000   0.3186
   6.000   1.0494   0.01253   0.00614  -0.0782  0.4864  1.0000  -1.7690   0.0000   0.0000   0.0000   0.3159
   6.250   1.0732   0.01285   0.00640  -0.0775  0.4685  1.0000  -1.8452   0.0000   0.0000   0.0000   0.3134
   6.500   1.0963   0.01320   0.00669  -0.0768  0.4500  1.0000  -1.9286   0.0000   0.0000   0.0000   0.3109
   6.750   1.1190   0.01358   0.00702  -0.0760  0.4314  1.0000  -2.0275   0.0000   0.0000   0.0000   0.3084
   7.000   1.1411   0.01399   0.00737  -0.0752  0.4124  1.0000  -2.1266   0.0000   0.0000   0.0000   0.3060
   7.250   1.1624   0.01444   0.00775  -0.0742  0.3931  1.0000  -2.2255   0.0000   0.0000   0.0000   0.3037
   7.500   1.1831   0.01492   0.00817  -0.0732  0.3736  1.0000  -2.3245   0.0000   0.0000   0.0000   0.3014
   7.750   1.2031   0.01542   0.00862  -0.0722  0.3542  1.0000  -2.4276   0.0000   0.0000   0.0000   0.2991
   8.000   1.2223   0.01597   0.00910  -0.0710  0.3353  1.0000  -2.5428   0.0000   0.0000   0.0000   0.2969
   8.250   1.2405   0.01655   0.00963  -0.0697  0.3166  1.0000  -2.6574   0.0000   0.0000   0.0000   0.2946
   8.500   1.2577   0.01718   0.01019  -0.0683  0.2982  1.0000  -2.7709   0.0000   0.0000   0.0000   0.2924
   8.750   1.2737   0.01784   0.01079  -0.0668  0.2807  1.0000  -2.8829   0.0000   0.0000   0.0000   0.2901
   9.000   1.2873   0.01854   0.01144  -0.0649  0.2646  1.0000  -2.9895   0.0000   0.0000   0.0000   0.2877
   9.250   1.3006   0.01929   0.01215  -0.0630  0.2493  1.0000  -3.0963   0.0000   0.0000   0.0000   0.2854
   9.500   1.3137   0.02010   0.01292  -0.0613  0.2346  1.0000  -3.2034   0.0000   0.0000   0.0000   0.2832
   9.750   1.3255   0.02102   0.01379  -0.0596  0.2209  1.0000  -3.3079   0.0000   0.0000   0.0000   0.2811
  10.000   1.3382   0.02192   0.01468  -0.0580  0.2068  1.0000  -3.4155   0.0000   0.0000   0.0000   0.2791
  10.250   1.3492   0.02297   0.01568  -0.0564  0.1941  1.0000  -3.5191   0.0000   0.0000   0.0000   0.2771
  10.500   1.3609   0.02400   0.01671  -0.0549  0.1814  1.0000  -3.6255   0.0000   0.0000   0.0000   0.2753
  10.750   1.3714   0.02514   0.01783  -0.0534  0.1699  1.0000  -3.7288   0.0000   0.0000   0.0000   0.2734
  11.000   1.3809   0.02639   0.01905  -0.0519  0.1596  1.0000  -3.8294   0.0000   0.0000   0.0000   0.2717
  11.250   1.3896   0.02773   0.02037  -0.0504  0.1500  1.0000  -3.9278   0.0000   0.0000   0.0000   0.2699
  11.500   1.3986   0.02907   0.02173  -0.0490  0.1405  1.0000  -4.0274   0.0000   0.0000   0.0000   0.2682
  11.750   1.4071   0.03048   0.02315  -0.0477  0.1315  1.0000  -4.1256   0.0000   0.0000   0.0000   0.2666
  12.000   1.4146   0.03201   0.02468  -0.0464  0.1231  1.0000  -4.2206   0.0000   0.0000   0.0000   0.2650
  12.250   1.4207   0.03367   0.02633  -0.0451  0.1155  1.0000  -4.3113   0.0000   0.0000   0.0000   0.2635
  12.500   1.4272   0.03535   0.02804  -0.0438  0.1079  1.0000  -4.4025   0.0000   0.0000   0.0000   0.2620
  12.750   1.4330   0.03712   0.02986  -0.0427  0.1009  1.0000  -4.4929   0.0000   0.0000   0.0000   0.2606
  13.000   1.4373   0.03905   0.03183  -0.0415  0.0948  1.0000  -4.5810   0.0000   0.0000   0.0000   0.2592
  13.250   1.4389   0.04126   0.03403  -0.0403  0.0897  1.0000  -4.6595   0.0000   0.0000   0.0000   0.2579
  13.500   1.4426   0.04334   0.03617  -0.0393  0.0844  1.0000  -4.7439   0.0000   0.0000   0.0000   0.2566
  13.750   1.4444   0.04563   0.03851  -0.0384  0.0798  1.0000  -4.8199   0.0000   0.0000   0.0000   0.2554
  14.000   1.4455   0.04807   0.04097  -0.0375  0.0758  1.0000  -4.8946   0.0000   0.0000   0.0000   0.2543
  14.250   1.4471   0.05053   0.04351  -0.0368  0.0720  1.0000  -4.9669   0.0000   0.0000   0.0000   0.2533
  14.500   1.4484   0.05311   0.04614  -0.0362  0.0686  1.0000  -5.0401   0.0000   0.0000   0.0000   0.2523
  14.750   1.4482   0.05586   0.04892  -0.0356  0.0657  1.0000  -5.1046   0.0000   0.0000   0.0000   0.2514
  15.000   1.4503   0.05849   0.05166  -0.0353  0.0627  1.0000  -5.1862   0.0000   0.0000   0.0000   0.2506
  15.250   1.4501   0.06135   0.05453  -0.0350  0.0604  1.0000  -5.2630   0.0000   0.0000   0.0000   0.2498
  15.500   1.4506   0.06416   0.05740  -0.0346  0.0583  1.0000  -5.3367   0.0000   0.0000   0.0000   0.2490
  15.750   1.4521   0.06698   0.06035  -0.0345  0.0562  1.0000  -5.4139   0.0000   0.0000   0.0000   0.2484
  16.000   1.4531   0.06987   0.06329  -0.0344  0.0544  1.0000  -5.4920   0.0000   0.0000   0.0000   0.2478
  16.250   1.4542   0.07260   0.06600  -0.0341  0.0528  1.0000  -5.5720   0.0000   0.0000   0.0000   0.2470
  16.500   1.4559   0.07534   0.06884  -0.0339  0.0513  1.0000  -5.6466   0.0000   0.0000   0.0000   0.2463
  16.750   1.4567   0.07842   0.07207  -0.0341  0.0500  1.0000  -5.7153   0.0000   0.0000   0.0000   0.2458
  17.000   1.4577   0.08143   0.07518  -0.0343  0.0486  1.0000  -5.7874   0.0000   0.0000   0.0000   0.2454
  17.250   1.4592   0.08436   0.07817  -0.0345  0.0474  1.0000  -5.8646   0.0000   0.0000   0.0000   0.2450
  17.500   1.4622   0.08697   0.08080  -0.0346  0.0463  1.0000  -5.9915   0.0000   0.0000   0.0000   0.2444
  17.750   1.4677   0.08898   0.08280  -0.0339  0.0451  1.0000  -6.1324   0.0000   0.0000   0.0000   0.2433
  18.000   1.4650   0.09276   0.08677  -0.0348  0.0443  1.0000  -6.2148   0.0000   0.0000   0.0000   0.2434
  18.250   1.4625   0.09653   0.09072  -0.0358  0.0435  1.0000  -6.2970   0.0000   0.0000   0.0000   0.2435
  18.500   1.4606   0.10018   0.09453  -0.0368  0.0427  1.0000  -6.3829   0.0000   0.0000   0.0000   0.2436
  18.750   1.4592   0.10378   0.09825  -0.0378  0.0420  1.0000  -6.4713   0.0000   0.0000   0.0000   0.2437
  19.000   1.4584   0.10728   0.10186  -0.0390  0.0413  1.0000  -6.5646   0.0000   0.0000   0.0000   0.2439
  19.250   1.4590   0.11055   0.10521  -0.0401  0.0406  1.0000  -6.6685   0.0000   0.0000   0.0000   0.2440
  19.500   1.4619   0.11333   0.10803  -0.0409  0.0399  1.0000  -6.7914   0.0000   0.0000   0.0000   0.2439
  19.750   1.4674   0.11542   0.11012  -0.0409  0.0391  1.0000  -6.9317   0.0000   0.0000   0.0000   0.2432
  20.000   1.4606   0.11999   0.11487  -0.0430  0.0386  1.0000  -6.9673   0.0000   0.0000   0.0000   0.2441


