xflr5 v6.61

 Calculated polar for: QX0126

 1 1 Reynolds number fixed          Mach number fixed         

 xtrf =   1.000 (top)        1.000 (bottom)
 Mach =   0.000     Re =     0.360 e 6     Ncrit =   9.000

  alpha     CL        CD       CDp       Cm    Top Xtr Bot Xtr   Cpmin    Chinge    XCp    
 ------- -------- --------- --------- -------- ------- ------- -------- --------- ---------
 -10.000  -0.6317   0.03224   0.02750  -0.0911  0.9183  0.0321  -5.3909   0.0000   0.0000   0.0000   0.0921
  -9.750  -0.6198   0.02978   0.02460  -0.0908  0.9122  0.0326  -5.3084   0.0000   0.0000   0.0000   0.0901
  -9.500  -0.6051   0.02720   0.02182  -0.0903  0.9073  0.0333  -5.2010   0.0000   0.0000   0.0000   0.0875
  -9.250  -0.5839   0.02608   0.02061  -0.0900  0.9023  0.0340  -5.0211   0.0000   0.0000   0.0000   0.0827
  -9.000  -0.5618   0.02520   0.01962  -0.0896  0.8980  0.0349  -4.8367   0.0000   0.0000   0.0000   0.0774
  -8.750  -0.5391   0.02421   0.01847  -0.0893  0.8934  0.0359  -4.6631   0.0000   0.0000   0.0000   0.0713
  -8.500  -0.5166   0.02307   0.01711  -0.0888  0.8895  0.0369  -4.5054   0.0000   0.0000   0.0000   0.0650
  -8.250  -0.4928   0.02200   0.01581  -0.0885  0.8850  0.0378  -4.3459   0.0000   0.0000   0.0000   0.0573
  -8.000  -0.4690   0.02112   0.01469  -0.0880  0.8814  0.0385  -4.1858   0.0000   0.0000   0.0000   0.0492
  -7.750  -0.4453   0.01967   0.01320  -0.0879  0.8767  0.0399  -4.0320   0.0000   0.0000   0.0000   0.0394
  -7.500  -0.4204   0.01906   0.01254  -0.0875  0.8731  0.0412  -3.8555   0.0000   0.0000   0.0000   0.0286
  -7.250  -0.3944   0.01841   0.01180  -0.0873  0.8685  0.0425  -3.6870   0.0000   0.0000   0.0000   0.0151
  -7.000  -0.3688   0.01776   0.01102  -0.0869  0.8648  0.0439  -3.5254   0.0000   0.0000   0.0000   0.0005
  -6.750  -0.3425   0.01710   0.01023  -0.0867  0.8606  0.0454  -3.3752   0.0000   0.0000   0.0000  -0.0172
  -6.500  -0.3173   0.01633   0.00949  -0.0864  0.8566  0.0475  -3.2210   0.0000   0.0000   0.0000  -0.0367
  -6.250  -0.2907   0.01591   0.00902  -0.0862  0.8526  0.0498  -3.0626   0.0000   0.0000   0.0000  -0.0614
  -6.000  -0.2637   0.01552   0.00852  -0.0860  0.8483  0.0521  -2.9196   0.0000   0.0000   0.0000  -0.0916
  -5.750  -0.2381   0.01481   0.00784  -0.0857  0.8449  0.0551  -2.7844   0.0000   0.0000   0.0000  -0.1260
  -5.500  -0.2108   0.01447   0.00746  -0.0856  0.8403  0.0587  -2.6412   0.0000   0.0000   0.0000  -0.1733
  -5.250  -0.1844   0.01399   0.00695  -0.0853  0.8370  0.0628  -2.5035   0.0000   0.0000   0.0000  -0.2312
  -5.000  -0.1567   0.01372   0.00666  -0.0853  0.8321  0.0674  -2.3714   0.0000   0.0000   0.0000  -0.3146
  -4.750  -0.1299   0.01331   0.00625  -0.0850  0.8284  0.0725  -2.2426   0.0000   0.0000   0.0000  -0.4275
  -4.500  -0.1024   0.01300   0.00595  -0.0850  0.8236  0.0785  -2.1139   0.0000   0.0000   0.0000  -0.6072
  -4.250  -0.0748   0.01273   0.00566  -0.0848  0.8199  0.0862  -1.9846   0.0000   0.0000   0.0000  -0.9189
  -4.000  -0.0472   0.01242   0.00539  -0.0848  0.8154  0.0962  -1.8580   0.0000   0.0000   0.0000  -1.5963
  -3.750  -0.0197   0.01212   0.00513  -0.0847  0.8112  0.1093  -1.7406   0.0000   0.0000   0.0000  -4.1664
  -3.500   0.0081   0.01187   0.00493  -0.0847  0.8067  0.1251  -1.6236   0.0000   0.0000   0.0000  10.9359
  -3.250   0.0359   0.01159   0.00470  -0.0846  0.8024  0.1426  -1.5085   0.0000   0.0000   0.0000   2.6585
  -3.000   0.0637   0.01134   0.00453  -0.0846  0.7978  0.1638  -1.3944   0.0000   0.0000   0.0000   1.6039
  -2.750   0.0916   0.01109   0.00435  -0.0845  0.7933  0.1904  -1.2819   0.0000   0.0000   0.0000   1.1893
  -2.500   0.1195   0.01084   0.00421  -0.0845  0.7882  0.2216  -1.1716   0.0000   0.0000   0.0000   0.9688
  -2.250   0.1474   0.01059   0.00406  -0.0845  0.7837  0.2585  -1.0672   0.0000   0.0000   0.0000   0.8312
  -2.000   0.1752   0.01033   0.00396  -0.0845  0.7784  0.3033  -0.9684   0.0000   0.0000   0.0000   0.7382
  -1.750   0.2029   0.01002   0.00383  -0.0845  0.7742  0.3614  -0.8716   0.0000   0.0000   0.0000   0.6704
  -1.500   0.2301   0.00968   0.00376  -0.0845  0.7683  0.4377  -0.7780   0.0000   0.0000   0.0000   0.6198
  -1.250   0.2569   0.00930   0.00369  -0.0842  0.7635  0.5333  -0.7019   0.0000   0.0000   0.0000   0.5795
  -1.000   0.2833   0.00900   0.00367  -0.0837  0.7576  0.6202  -0.6370   0.0000   0.0000   0.0000   0.5466
  -0.750   0.3096   0.00879   0.00368  -0.0831  0.7517  0.6940  -0.6561   0.0000   0.0000   0.0000   0.5188
  -0.500   0.3359   0.00862   0.00363  -0.0824  0.7467  0.7498  -0.6765   0.0000   0.0000   0.0000   0.4950
  -0.250   0.3619   0.00851   0.00364  -0.0817  0.7399  0.7925  -0.6977   0.0000   0.0000   0.0000   0.4747
   0.000   0.3876   0.00842   0.00362  -0.0808  0.7336  0.8312  -0.7219   0.0000   0.0000   0.0000   0.4571
   0.250   0.4127   0.00833   0.00358  -0.0797  0.7277  0.8671  -0.7461   0.0000   0.0000   0.0000   0.4413
   0.500   0.4371   0.00825   0.00355  -0.0784  0.7208  0.9038  -0.7706   0.0000   0.0000   0.0000   0.4272
   0.750   0.4646   0.00819   0.00350  -0.0778  0.7131  0.9388  -0.7972   0.0000   0.0000   0.0000   0.4149
   1.000   0.5014   0.00814   0.00342  -0.0793  0.7051  0.9699  -0.8295   0.0000   0.0000   0.0000   0.4053
   1.250   0.5450   0.00809   0.00332  -0.0824  0.6962  0.9923  -0.8680   0.0000   0.0000   0.0000   0.3981
   1.500   0.5791   0.00809   0.00325  -0.0838  0.6870  1.0000  -0.9007   0.0000   0.0000   0.0000   0.3912
   1.750   0.6051   0.00813   0.00323  -0.0834  0.6782  1.0000  -0.9336   0.0000   0.0000   0.0000   0.3841
   2.000   0.6318   0.00818   0.00322  -0.0832  0.6692  1.0000  -0.9682   0.0000   0.0000   0.0000   0.3776
   2.250   0.6588   0.00825   0.00323  -0.0830  0.6596  1.0000  -1.0037   0.0000   0.0000   0.0000   0.3717
   2.500   0.6859   0.00832   0.00325  -0.0828  0.6493  1.0000  -1.0405   0.0000   0.0000   0.0000   0.3661
   2.750   0.7131   0.00840   0.00326  -0.0826  0.6383  1.0000  -1.0781   0.0000   0.0000   0.0000   0.3610
   3.000   0.7401   0.00849   0.00331  -0.0824  0.6255  1.0000  -1.1169   0.0000   0.0000   0.0000   0.3562
   3.250   0.7671   0.00860   0.00336  -0.0822  0.6125  1.0000  -1.1570   0.0000   0.0000   0.0000   0.3517
   3.500   0.7940   0.00873   0.00343  -0.0820  0.5994  1.0000  -1.2025   0.0000   0.0000   0.0000   0.3476
   3.750   0.8209   0.00887   0.00352  -0.0818  0.5865  1.0000  -1.2485   0.0000   0.0000   0.0000   0.3437
   4.000   0.8476   0.00903   0.00363  -0.0816  0.5731  1.0000  -1.2947   0.0000   0.0000   0.0000   0.3400
   4.250   0.8741   0.00921   0.00375  -0.0813  0.5590  1.0000  -1.3452   0.0000   0.0000   0.0000   0.3365
   4.500   0.9004   0.00940   0.00389  -0.0811  0.5444  1.0000  -1.3980   0.0000   0.0000   0.0000   0.3332
   4.750   0.9264   0.00962   0.00404  -0.0807  0.5294  1.0000  -1.4534   0.0000   0.0000   0.0000   0.3301
   5.000   0.9521   0.00985   0.00422  -0.0804  0.5128  1.0000  -1.5144   0.0000   0.0000   0.0000   0.3271
   5.250   0.9776   0.01010   0.00441  -0.0800  0.4959  1.0000  -1.5767   0.0000   0.0000   0.0000   0.3242
   5.500   1.0029   0.01036   0.00462  -0.0796  0.4794  1.0000  -1.6435   0.0000   0.0000   0.0000   0.3214
   5.750   1.0278   0.01065   0.00484  -0.0792  0.4624  1.0000  -1.7105   0.0000   0.0000   0.0000   0.3188
   6.000   1.0522   0.01096   0.00510  -0.0787  0.4444  1.0000  -1.7791   0.0000   0.0000   0.0000   0.3162
   6.250   1.0764   0.01129   0.00536  -0.0782  0.4264  1.0000  -1.8561   0.0000   0.0000   0.0000   0.3137
   6.500   1.1000   0.01165   0.00566  -0.0776  0.4077  1.0000  -1.9461   0.0000   0.0000   0.0000   0.3113
   6.750   1.1231   0.01203   0.00597  -0.0769  0.3886  1.0000  -2.0462   0.0000   0.0000   0.0000   0.3090
   7.000   1.1458   0.01244   0.00631  -0.0762  0.3694  1.0000  -2.1468   0.0000   0.0000   0.0000   0.3067
   7.250   1.1679   0.01288   0.00668  -0.0755  0.3504  1.0000  -2.2479   0.0000   0.0000   0.0000   0.3044
   7.500   1.1894   0.01334   0.00708  -0.0746  0.3315  1.0000  -2.3491   0.0000   0.0000   0.0000   0.3022
   7.750   1.2100   0.01385   0.00750  -0.0737  0.3124  1.0000  -2.4615   0.0000   0.0000   0.0000   0.3000
   8.000   1.2302   0.01438   0.00795  -0.0727  0.2938  1.0000  -2.5804   0.0000   0.0000   0.0000   0.2978
   8.250   1.2496   0.01493   0.00844  -0.0716  0.2759  1.0000  -2.6993   0.0000   0.0000   0.0000   0.2957
   8.500   1.2683   0.01550   0.00895  -0.0704  0.2591  1.0000  -2.8179   0.0000   0.0000   0.0000   0.2936
   8.750   1.2860   0.01610   0.00950  -0.0692  0.2432  1.0000  -2.9357   0.0000   0.0000   0.0000   0.2914
   9.000   1.3011   0.01675   0.01008  -0.0674  0.2281  1.0000  -3.0477   0.0000   0.0000   0.0000   0.2891
   9.250   1.3160   0.01744   0.01072  -0.0658  0.2131  1.0000  -3.1608   0.0000   0.0000   0.0000   0.2869
   9.500   1.3311   0.01816   0.01140  -0.0643  0.1987  1.0000  -3.2753   0.0000   0.0000   0.0000   0.2849
   9.750   1.3450   0.01897   0.01216  -0.0628  0.1856  1.0000  -3.3875   0.0000   0.0000   0.0000   0.2828
  10.000   1.3595   0.01979   0.01295  -0.0614  0.1733  1.0000  -3.5022   0.0000   0.0000   0.0000   0.2809
  10.250   1.3730   0.02068   0.01382  -0.0600  0.1618  1.0000  -3.6153   0.0000   0.0000   0.0000   0.2790
  10.500   1.3857   0.02165   0.01476  -0.0586  0.1514  1.0000  -3.7265   0.0000   0.0000   0.0000   0.2772
  10.750   1.3979   0.02268   0.01577  -0.0572  0.1415  1.0000  -3.8372   0.0000   0.0000   0.0000   0.2754
  11.000   1.4102   0.02373   0.01680  -0.0559  0.1321  1.0000  -3.9491   0.0000   0.0000   0.0000   0.2737
  11.250   1.4221   0.02482   0.01790  -0.0546  0.1232  1.0000  -4.0601   0.0000   0.0000   0.0000   0.2720
  11.500   1.4329   0.02601   0.01908  -0.0532  0.1148  1.0000  -4.1685   0.0000   0.0000   0.0000   0.2703
  11.750   1.4425   0.02731   0.02037  -0.0519  0.1070  1.0000  -4.2735   0.0000   0.0000   0.0000   0.2687
  12.000   1.4521   0.02864   0.02171  -0.0506  0.0996  1.0000  -4.3786   0.0000   0.0000   0.0000   0.2671
  12.250   1.4611   0.03004   0.02313  -0.0493  0.0929  1.0000  -4.4817   0.0000   0.0000   0.0000   0.2656
  12.500   1.4690   0.03155   0.02467  -0.0481  0.0867  1.0000  -4.5819   0.0000   0.0000   0.0000   0.2641
  12.750   1.4751   0.03325   0.02638  -0.0468  0.0811  1.0000  -4.6810   0.0000   0.0000   0.0000   0.2626
  13.000   1.4808   0.03500   0.02815  -0.0456  0.0758  1.0000  -4.7790   0.0000   0.0000   0.0000   0.2612
  13.250   1.4868   0.03677   0.02997  -0.0445  0.0709  1.0000  -4.8771   0.0000   0.0000   0.0000   0.2598
  13.750   1.4943   0.04083   0.03411  -0.0423  0.0629  1.0000  -5.0557   0.0000   0.0000   0.0000   0.2572
  14.000   1.4933   0.04338   0.03668  -0.0413  0.0598  1.0000  -5.1271   0.0000   0.0000   0.0000   0.2560
  14.250   1.4976   0.04552   0.03891  -0.0405  0.0567  1.0000  -5.2153   0.0000   0.0000   0.0000   0.2549
  14.500   1.4988   0.04803   0.04147  -0.0399  0.0541  1.0000  -5.2935   0.0000   0.0000   0.0000   0.2539
  14.750   1.4945   0.05120   0.04466  -0.0392  0.0520  1.0000  -5.3559   0.0000   0.0000   0.0000   0.2530
  15.000   1.4982   0.05361   0.04720  -0.0388  0.0499  1.0000  -5.4510   0.0000   0.0000   0.0000   0.2521
  15.250   1.4992   0.05639   0.05006  -0.0385  0.0480  1.0000  -5.5356   0.0000   0.0000   0.0000   0.2514
  15.500   1.4964   0.05965   0.05336  -0.0384  0.0465  1.0000  -5.6037   0.0000   0.0000   0.0000   0.2508
  15.750   1.4901   0.06334   0.05709  -0.0382  0.0451  1.0000  -5.6522   0.0000   0.0000   0.0000   0.2502
  16.000   1.4917   0.06625   0.06014  -0.0382  0.0439  1.0000  -5.7348   0.0000   0.0000   0.0000   0.2496
  16.250   1.4913   0.06942   0.06342  -0.0384  0.0426  1.0000  -5.8090   0.0000   0.0000   0.0000   0.2492
  16.500   1.4899   0.07277   0.06685  -0.0387  0.0415  1.0000  -5.8795   0.0000   0.0000   0.0000   0.2488
  16.750   1.4872   0.07633   0.07048  -0.0391  0.0405  1.0000  -5.9620   0.0000   0.0000   0.0000   0.2486
  17.000   1.4823   0.08013   0.07432  -0.0395  0.0395  1.0000  -6.0443   0.0000   0.0000   0.0000   0.2484
  17.250   1.4781   0.08377   0.07801  -0.0398  0.0386  1.0000  -6.1278   0.0000   0.0000   0.0000   0.2480
  17.500   1.4771   0.08728   0.08165  -0.0405  0.0379  1.0000  -6.2304   0.0000   0.0000   0.0000   0.2479
  17.750   1.4756   0.09085   0.08533  -0.0412  0.0372  1.0000  -6.3291   0.0000   0.0000   0.0000   0.2478
  18.000   1.4739   0.09445   0.08904  -0.0420  0.0364  1.0000  -6.4262   0.0000   0.0000   0.0000   0.2478
  18.250   1.4722   0.09807   0.09275  -0.0428  0.0358  1.0000  -6.5231   0.0000   0.0000   0.0000   0.2479
  18.500   1.4707   0.10166   0.09641  -0.0438  0.0351  1.0000  -6.6215   0.0000   0.0000   0.0000   0.2479
  18.750   1.4694   0.10522   0.10004  -0.0448  0.0345  1.0000  -6.7210   0.0000   0.0000   0.0000   0.2480
  19.000   1.4685   0.10866   0.10352  -0.0458  0.0339  1.0000  -6.8227   0.0000   0.0000   0.0000   0.2481
  19.250   1.4701   0.11125   0.10612  -0.0460  0.0331  1.0000  -6.9423   0.0000   0.0000   0.0000   0.2476
  19.500   1.4692   0.11472   0.10969  -0.0471  0.0326  1.0000  -7.0373   0.0000   0.0000   0.0000   0.2477
  19.750   1.4672   0.11866   0.11377  -0.0489  0.0323  1.0000  -7.1214   0.0000   0.0000   0.0000   0.2483
  20.000   1.4652   0.12257   0.11781  -0.0506  0.0318  1.0000  -7.2037   0.0000   0.0000   0.0000   0.2489


