xflr5 v6.61

 Calculated polar for: QX0126

 1 1 Reynolds number fixed          Mach number fixed         

 xtrf =   1.000 (top)        1.000 (bottom)
 Mach =   0.000     Re =     0.725 e 6     Ncrit =   9.000

  alpha     CL        CD       CDp       Cm    Top Xtr Bot Xtr   Cpmin    Chinge    XCp    
 ------- -------- --------- --------- -------- ------- ------- -------- --------- ---------
 -10.000  -0.7120   0.01876   0.01340  -0.0811  0.8622  0.0240  -6.2961   0.0000   0.0000   0.0000   0.1229
  -9.750  -0.6864   0.01827   0.01287  -0.0811  0.8582  0.0246  -6.0569   0.0000   0.0000   0.0000   0.1189
  -9.500  -0.6608   0.01781   0.01233  -0.0809  0.8551  0.0252  -5.8238   0.0000   0.0000   0.0000   0.1146
  -9.250  -0.6347   0.01729   0.01174  -0.0809  0.8514  0.0259  -5.5975   0.0000   0.0000   0.0000   0.1098
  -9.000  -0.6087   0.01676   0.01112  -0.0808  0.8480  0.0265  -5.3778   0.0000   0.0000   0.0000   0.1046
  -8.750  -0.5824   0.01631   0.01057  -0.0807  0.8450  0.0270  -5.1580   0.0000   0.0000   0.0000   0.0989
  -8.500  -0.5567   0.01558   0.00975  -0.0806  0.8413  0.0277  -4.9526   0.0000   0.0000   0.0000   0.0927
  -8.250  -0.5313   0.01488   0.00902  -0.0805  0.8380  0.0286  -4.7458   0.0000   0.0000   0.0000   0.0861
  -8.000  -0.5044   0.01448   0.00858  -0.0804  0.8344  0.0294  -4.5388   0.0000   0.0000   0.0000   0.0780
  -7.750  -0.4772   0.01409   0.00814  -0.0804  0.8308  0.0302  -4.3368   0.0000   0.0000   0.0000   0.0690
  -7.500  -0.4501   0.01372   0.00770  -0.0803  0.8278  0.0312  -4.1398   0.0000   0.0000   0.0000   0.0590
  -7.250  -0.4222   0.01341   0.00734  -0.0804  0.8239  0.0321  -3.9417   0.0000   0.0000   0.0000   0.0470
  -7.000  -0.3955   0.01286   0.00672  -0.0803  0.8204  0.0333  -3.7615   0.0000   0.0000   0.0000   0.0342
  -6.750  -0.3684   0.01240   0.00624  -0.0802  0.8171  0.0347  -3.5851   0.0000   0.0000   0.0000   0.0191
  -6.500  -0.3404   0.01209   0.00591  -0.0803  0.8133  0.0361  -3.4064   0.0000   0.0000   0.0000   0.0009
  -6.250  -0.3125   0.01182   0.00558  -0.0803  0.8103  0.0377  -3.2347   0.0000   0.0000   0.0000  -0.0205
  -6.000  -0.2848   0.01139   0.00512  -0.0803  0.8065  0.0399  -3.0804   0.0000   0.0000   0.0000  -0.0461
  -5.750  -0.2568   0.01110   0.00483  -0.0803  0.8028  0.0426  -2.9188   0.0000   0.0000   0.0000  -0.0776
  -5.500  -0.2283   0.01091   0.00458  -0.0803  0.7993  0.0449  -2.7599   0.0000   0.0000   0.0000  -0.1175
  -5.250  -0.2004   0.01054   0.00423  -0.0804  0.7952  0.0486  -2.6119   0.0000   0.0000   0.0000  -0.1681
  -5.000  -0.1718   0.01037   0.00401  -0.0804  0.7920  0.0518  -2.4666   0.0000   0.0000   0.0000  -0.2364
  -4.750  -0.1434   0.01008   0.00374  -0.0805  0.7879  0.0559  -2.3257   0.0000   0.0000   0.0000  -0.3319
  -4.500  -0.1148   0.00992   0.00354  -0.0806  0.7841  0.0599  -2.1839   0.0000   0.0000   0.0000  -0.4760
  -4.250  -0.0863   0.00966   0.00332  -0.0807  0.7802  0.0662  -2.0464   0.0000   0.0000   0.0000  -0.7142
  -4.000  -0.0577   0.00945   0.00313  -0.0808  0.7761  0.0739  -1.9105   0.0000   0.0000   0.0000  -1.1906
  -3.750  -0.0290   0.00927   0.00297  -0.0809  0.7723  0.0840  -1.7853   0.0000   0.0000   0.0000  -2.6095
  -3.500  -0.0003   0.00908   0.00281  -0.0810  0.7675  0.0952  -1.6620   0.0000   0.0000   0.0000  -267.5181
  -3.250   0.0283   0.00889   0.00265  -0.0811  0.7634  0.1081  -1.5407   0.0000   0.0000   0.0000   3.1807
  -3.000   0.0570   0.00871   0.00254  -0.0812  0.7585  0.1244  -1.4211   0.0000   0.0000   0.0000   1.7025
  -2.750   0.0858   0.00854   0.00241  -0.0814  0.7543  0.1416  -1.3042   0.0000   0.0000   0.0000   1.2153
  -2.500   0.1146   0.00836   0.00230  -0.0815  0.7494  0.1624  -1.1899   0.0000   0.0000   0.0000   0.9727
  -2.250   0.1433   0.00819   0.00221  -0.0817  0.7447  0.1892  -1.0788   0.0000   0.0000   0.0000   0.8276
  -2.000   0.1720   0.00801   0.00212  -0.0818  0.7394  0.2169  -0.9772   0.0000   0.0000   0.0000   0.7309
  -1.750   0.2007   0.00785   0.00204  -0.0820  0.7338  0.2481  -0.8778   0.0000   0.0000   0.0000   0.6619
  -1.500   0.2294   0.00768   0.00196  -0.0821  0.7288  0.2830  -0.7809   0.0000   0.0000   0.0000   0.6103
  -1.250   0.2580   0.00748   0.00191  -0.0823  0.7227  0.3276  -0.7031   0.0000   0.0000   0.0000   0.5702
  -1.000   0.2865   0.00727   0.00186  -0.0824  0.7169  0.3816  -0.6421   0.0000   0.0000   0.0000   0.5383
  -0.750   0.3145   0.00699   0.00181  -0.0825  0.7111  0.4633  -0.6620   0.0000   0.0000   0.0000   0.5123
  -0.500   0.3425   0.00672   0.00181  -0.0826  0.7045  0.5519  -0.6825   0.0000   0.0000   0.0000   0.4905
  -0.250   0.3705   0.00652   0.00182  -0.0825  0.6976  0.6215  -0.7049   0.0000   0.0000   0.0000   0.4717
   0.000   0.3982   0.00638   0.00183  -0.0824  0.6902  0.6863  -0.7304   0.0000   0.0000   0.0000   0.4554
   0.250   0.4261   0.00629   0.00184  -0.0822  0.6822  0.7305  -0.7562   0.0000   0.0000   0.0000   0.4410
   0.500   0.4539   0.00624   0.00186  -0.0820  0.6735  0.7665  -0.7828   0.0000   0.0000   0.0000   0.4284
   0.750   0.4814   0.00620   0.00188  -0.0818  0.6645  0.7996  -0.8094   0.0000   0.0000   0.0000   0.4172
   1.000   0.5084   0.00616   0.00192  -0.0814  0.6560  0.8350  -0.8359   0.0000   0.0000   0.0000   0.4070
   1.250   0.5347   0.00613   0.00196  -0.0808  0.6475  0.8698  -0.8636   0.0000   0.0000   0.0000   0.3978
   1.500   0.5602   0.00612   0.00199  -0.0800  0.6381  0.9016  -0.8911   0.0000   0.0000   0.0000   0.3892
   1.750   0.5854   0.00612   0.00202  -0.0791  0.6277  0.9353  -0.9218   0.0000   0.0000   0.0000   0.3812
   2.000   0.6165   0.00615   0.00204  -0.0795  0.6159  0.9678  -0.9596   0.0000   0.0000   0.0000   0.3748
   2.250   0.6552   0.00622   0.00205  -0.0818  0.6027  0.9929  -1.0038   0.0000   0.0000   0.0000   0.3704
   2.500   0.6866   0.00633   0.00209  -0.0826  0.5888  1.0000  -1.0439   0.0000   0.0000   0.0000   0.3656
   2.750   0.7138   0.00646   0.00215  -0.0825  0.5756  1.0000  -1.0816   0.0000   0.0000   0.0000   0.3606
   3.000   0.7413   0.00659   0.00223  -0.0824  0.5626  1.0000  -1.1208   0.0000   0.0000   0.0000   0.3560
   3.250   0.7686   0.00674   0.00231  -0.0824  0.5492  1.0000  -1.1619   0.0000   0.0000   0.0000   0.3517
   3.500   0.7960   0.00690   0.00241  -0.0823  0.5356  1.0000  -1.2079   0.0000   0.0000   0.0000   0.3476
   3.750   0.8231   0.00707   0.00252  -0.0822  0.5214  1.0000  -1.2542   0.0000   0.0000   0.0000   0.3438
   4.000   0.8503   0.00726   0.00263  -0.0821  0.5062  1.0000  -1.3009   0.0000   0.0000   0.0000   0.3403
   4.250   0.8771   0.00746   0.00277  -0.0820  0.4896  1.0000  -1.3515   0.0000   0.0000   0.0000   0.3369
   4.500   0.9038   0.00768   0.00291  -0.0818  0.4734  1.0000  -1.4050   0.0000   0.0000   0.0000   0.3337
   4.750   0.9304   0.00790   0.00307  -0.0817  0.4578  1.0000  -1.4613   0.0000   0.0000   0.0000   0.3306
   5.000   0.9568   0.00813   0.00323  -0.0815  0.4410  1.0000  -1.5243   0.0000   0.0000   0.0000   0.3278
   5.250   0.9830   0.00838   0.00342  -0.0813  0.4236  1.0000  -1.5893   0.0000   0.0000   0.0000   0.3250
   5.500   1.0089   0.00865   0.00361  -0.0811  0.4062  1.0000  -1.6572   0.0000   0.0000   0.0000   0.3223
   5.750   1.0345   0.00894   0.00382  -0.0808  0.3881  1.0000  -1.7254   0.0000   0.0000   0.0000   0.3198
   6.000   1.0598   0.00925   0.00406  -0.0805  0.3694  1.0000  -1.7960   0.0000   0.0000   0.0000   0.3173
   6.250   1.0848   0.00958   0.00430  -0.0801  0.3504  1.0000  -1.8755   0.0000   0.0000   0.0000   0.3150
   6.500   1.1096   0.00992   0.00456  -0.0798  0.3325  1.0000  -1.9779   0.0000   0.0000   0.0000   0.3127
   6.750   1.1338   0.01029   0.00484  -0.0793  0.3134  1.0000  -2.0808   0.0000   0.0000   0.0000   0.3104
   7.000   1.1576   0.01069   0.00515  -0.0788  0.2939  1.0000  -2.1844   0.0000   0.0000   0.0000   0.3082
   7.250   1.1812   0.01108   0.00546  -0.0783  0.2762  1.0000  -2.2894   0.0000   0.0000   0.0000   0.3061
   7.500   1.2046   0.01148   0.00579  -0.0778  0.2597  1.0000  -2.4002   0.0000   0.0000   0.0000   0.3040
   7.750   1.2271   0.01193   0.00615  -0.0771  0.2417  1.0000  -2.5250   0.0000   0.0000   0.0000   0.3020
   8.000   1.2491   0.01240   0.00654  -0.0764  0.2243  1.0000  -2.6505   0.0000   0.0000   0.0000   0.2999
   8.250   1.2706   0.01289   0.00694  -0.0756  0.2076  1.0000  -2.7768   0.0000   0.0000   0.0000   0.2979
   8.500   1.2915   0.01339   0.00735  -0.0748  0.1915  1.0000  -2.9035   0.0000   0.0000   0.0000   0.2959
   8.750   1.3121   0.01388   0.00779  -0.0739  0.1777  1.0000  -3.0311   0.0000   0.0000   0.0000   0.2940
   9.000   1.3322   0.01439   0.00824  -0.0729  0.1659  1.0000  -3.1592   0.0000   0.0000   0.0000   0.2920
   9.250   1.3513   0.01490   0.00871  -0.0718  0.1551  1.0000  -3.2863   0.0000   0.0000   0.0000   0.2900
   9.500   1.3686   0.01543   0.00920  -0.0703  0.1453  1.0000  -3.4098   0.0000   0.0000   0.0000   0.2880
   9.750   1.3855   0.01600   0.00975  -0.0690  0.1356  1.0000  -3.5339   0.0000   0.0000   0.0000   0.2859
  10.000   1.4020   0.01663   0.01035  -0.0676  0.1262  1.0000  -3.6578   0.0000   0.0000   0.0000   0.2840
  10.250   1.4178   0.01732   0.01100  -0.0662  0.1170  1.0000  -3.7810   0.0000   0.0000   0.0000   0.2821
  10.500   1.4330   0.01806   0.01171  -0.0649  0.1083  1.0000  -3.9036   0.0000   0.0000   0.0000   0.2802
  10.750   1.4477   0.01885   0.01248  -0.0635  0.1001  1.0000  -4.0260   0.0000   0.0000   0.0000   0.2784
  11.000   1.4621   0.01968   0.01330  -0.0622  0.0927  1.0000  -4.1482   0.0000   0.0000   0.0000   0.2767
  11.250   1.4764   0.02054   0.01415  -0.0610  0.0861  1.0000  -4.2713   0.0000   0.0000   0.0000   0.2750
  11.500   1.4898   0.02147   0.01507  -0.0597  0.0800  1.0000  -4.3924   0.0000   0.0000   0.0000   0.2733
  11.750   1.5021   0.02250   0.01608  -0.0584  0.0742  1.0000  -4.5106   0.0000   0.0000   0.0000   0.2716
  12.000   1.5149   0.02351   0.01710  -0.0571  0.0687  1.0000  -4.6312   0.0000   0.0000   0.0000   0.2701
  12.250   1.5268   0.02459   0.01820  -0.0559  0.0638  1.0000  -4.7502   0.0000   0.0000   0.0000   0.2685
  12.500   1.5367   0.02584   0.01944  -0.0545  0.0591  1.0000  -4.8684   0.0000   0.0000   0.0000   0.2669
  12.750   1.5479   0.02702   0.02065  -0.0533  0.0549  1.0000  -4.9917   0.0000   0.0000   0.0000   0.2654
  13.000   1.5568   0.02839   0.02203  -0.0520  0.0511  1.0000  -5.1072   0.0000   0.0000   0.0000   0.2639
  13.250   1.5660   0.02976   0.02343  -0.0508  0.0477  1.0000  -5.2246   0.0000   0.0000   0.0000   0.2624
  13.500   1.5728   0.03136   0.02505  -0.0495  0.0447  1.0000  -5.3323   0.0000   0.0000   0.0000   0.2609
  13.750   1.5814   0.03282   0.02656  -0.0484  0.0422  1.0000  -5.4479   0.0000   0.0000   0.0000   0.2596
  14.000   1.5862   0.03464   0.02840  -0.0472  0.0398  1.0000  -5.5521   0.0000   0.0000   0.0000   0.2582
  14.250   1.5916   0.03645   0.03027  -0.0460  0.0380  1.0000  -5.6656   0.0000   0.0000   0.0000   0.2569
  14.500   1.5977   0.03823   0.03211  -0.0451  0.0364  1.0000  -5.7830   0.0000   0.0000   0.0000   0.2556
  14.750   1.6012   0.04029   0.03422  -0.0441  0.0349  1.0000  -5.8902   0.0000   0.0000   0.0000   0.2544
  15.000   1.6006   0.04284   0.03683  -0.0431  0.0335  1.0000  -5.9985   0.0000   0.0000   0.0000   0.2533
  15.250   1.6030   0.04519   0.03926  -0.0424  0.0324  1.0000  -6.1388   0.0000   0.0000   0.0000   0.2522
  15.500   1.6078   0.04735   0.04150  -0.0418  0.0315  1.0000  -6.2949   0.0000   0.0000   0.0000   0.2512
  15.750   1.6108   0.04976   0.04399  -0.0414  0.0306  1.0000  -6.4417   0.0000   0.0000   0.0000   0.2503
  16.000   1.6117   0.05246   0.04676  -0.0410  0.0298  1.0000  -6.5768   0.0000   0.0000   0.0000   0.2495
  16.250   1.6102   0.05550   0.04987  -0.0407  0.0291  1.0000  -6.6973   0.0000   0.0000   0.0000   0.2488
  16.500   1.6052   0.05906   0.05351  -0.0406  0.0283  1.0000  -6.7947   0.0000   0.0000   0.0000   0.2482
  16.750   1.5951   0.06334   0.05789  -0.0407  0.0276  1.0000  -6.8567   0.0000   0.0000   0.0000   0.2479
  17.000   1.5939   0.06661   0.06126  -0.0409  0.0272  1.0000  -6.9768   0.0000   0.0000   0.0000   0.2474
  17.250   1.5927   0.06993   0.06468  -0.0412  0.0269  1.0000  -7.0969   0.0000   0.0000   0.0000   0.2470
  17.500   1.5900   0.07349   0.06834  -0.0416  0.0264  1.0000  -7.2070   0.0000   0.0000   0.0000   0.2467
  17.750   1.5862   0.07727   0.07222  -0.0422  0.0260  1.0000  -7.3092   0.0000   0.0000   0.0000   0.2465
  18.000   1.5813   0.08123   0.07628  -0.0429  0.0256  1.0000  -7.4036   0.0000   0.0000   0.0000   0.2464
  18.250   1.5756   0.08538   0.08052  -0.0438  0.0252  1.0000  -7.4909   0.0000   0.0000   0.0000   0.2464
  18.500   1.5688   0.08973   0.08497  -0.0448  0.0248  1.0000  -7.5693   0.0000   0.0000   0.0000   0.2466
  18.750   1.5609   0.09431   0.08963  -0.0460  0.0245  1.0000  -7.6373   0.0000   0.0000   0.0000   0.2469
  19.000   1.5519   0.09910   0.09451  -0.0474  0.0241  1.0000  -7.6954   0.0000   0.0000   0.0000   0.2473
  19.250   1.5418   0.10411   0.09961  -0.0490  0.0238  1.0000  -7.7408   0.0000   0.0000   0.0000   0.2479
  19.500   1.5307   0.10933   0.10491  -0.0509  0.0235  1.0000  -7.7738   0.0000   0.0000   0.0000   0.2487
  19.750   1.5188   0.11470   0.11036  -0.0529  0.0231  1.0000  -7.7954   0.0000   0.0000   0.0000   0.2497
  20.000   1.5089   0.11975   0.11550  -0.0549  0.0228  1.0000  -7.8285   0.0000   0.0000   0.0000   0.2506


