xflr5 v6.61

 Calculated polar for: QX0126

 1 1 Reynolds number fixed          Mach number fixed         

 xtrf =   1.000 (top)        1.000 (bottom)
 Mach =   0.000     Re =     0.440 e 6     Ncrit =   9.000

  alpha     CL        CD       CDp       Cm    Top Xtr Bot Xtr   Cpmin    Chinge    XCp    
 ------- -------- --------- --------- -------- ------- ------- -------- --------- ---------
 -10.000  -0.6679   0.02654   0.02149  -0.0871  0.8989  0.0290  -5.7633   0.0000   0.0000   0.0000   0.1062
  -9.750  -0.6460   0.02560   0.02044  -0.0869  0.8940  0.0297  -5.5601   0.0000   0.0000   0.0000   0.1022
  -9.500  -0.6248   0.02451   0.01916  -0.0865  0.8899  0.0304  -5.3858   0.0000   0.0000   0.0000   0.0984
  -9.250  -0.6025   0.02332   0.01777  -0.0863  0.8852  0.0311  -5.2169   0.0000   0.0000   0.0000   0.0937
  -9.000  -0.5797   0.02238   0.01661  -0.0859  0.8817  0.0319  -5.0419   0.0000   0.0000   0.0000   0.0889
  -8.750  -0.5551   0.02155   0.01558  -0.0857  0.8772  0.0326  -4.8581   0.0000   0.0000   0.0000   0.0827
  -8.500  -0.5332   0.01997   0.01390  -0.0854  0.8736  0.0336  -4.6935   0.0000   0.0000   0.0000   0.0770
  -8.250  -0.5079   0.01926   0.01316  -0.0853  0.8696  0.0345  -4.4944   0.0000   0.0000   0.0000   0.0692
  -8.000  -0.4825   0.01861   0.01242  -0.0851  0.8658  0.0354  -4.3063   0.0000   0.0000   0.0000   0.0608
  -7.750  -0.4568   0.01799   0.01169  -0.0848  0.8622  0.0365  -4.1283   0.0000   0.0000   0.0000   0.0514
  -7.500  -0.4304   0.01745   0.01104  -0.0847  0.8580  0.0377  -3.9501   0.0000   0.0000   0.0000   0.0403
  -7.250  -0.4049   0.01676   0.01021  -0.0843  0.8547  0.0388  -3.7832   0.0000   0.0000   0.0000   0.0286
  -7.000  -0.3794   0.01588   0.00933  -0.0842  0.8503  0.0402  -3.6154   0.0000   0.0000   0.0000   0.0146
  -6.750  -0.3530   0.01541   0.00882  -0.0840  0.8468  0.0417  -3.4472   0.0000   0.0000   0.0000  -0.0016
  -6.500  -0.3259   0.01498   0.00833  -0.0839  0.8427  0.0435  -3.2841   0.0000   0.0000   0.0000  -0.0214
  -6.250  -0.2990   0.01452   0.00778  -0.0837  0.8388  0.0455  -3.1266   0.0000   0.0000   0.0000  -0.0444
  -6.000  -0.2727   0.01396   0.00724  -0.0836  0.8353  0.0480  -2.9779   0.0000   0.0000   0.0000  -0.0714
  -5.750  -0.2451   0.01363   0.00686  -0.0835  0.8311  0.0509  -2.8292   0.0000   0.0000   0.0000  -0.1065
  -5.500  -0.2183   0.01315   0.00634  -0.0833  0.8280  0.0540  -2.6882   0.0000   0.0000   0.0000  -0.1482
  -5.250  -0.1905   0.01284   0.00604  -0.0833  0.8234  0.0578  -2.5407   0.0000   0.0000   0.0000  -0.2052
  -5.000  -0.1632   0.01247   0.00564  -0.0832  0.8197  0.0621  -2.4083   0.0000   0.0000   0.0000  -0.2793
  -4.750  -0.1352   0.01222   0.00537  -0.0832  0.8153  0.0670  -2.2719   0.0000   0.0000   0.0000  -0.3873
  -4.500  -0.1076   0.01189   0.00506  -0.0831  0.8114  0.0726  -2.1395   0.0000   0.0000   0.0000  -0.5489
  -4.250  -0.0795   0.01163   0.00480  -0.0831  0.8075  0.0795  -2.0077   0.0000   0.0000   0.0000  -0.8275
  -4.000  -0.0515   0.01138   0.00456  -0.0831  0.8032  0.0887  -1.8771   0.0000   0.0000   0.0000  -1.4112
  -3.750  -0.0234   0.01112   0.00432  -0.0831  0.7994  0.1006  -1.7572   0.0000   0.0000   0.0000  -3.3884
  -3.500   0.0047   0.01087   0.00413  -0.0831  0.7948  0.1154  -1.6378   0.0000   0.0000   0.0000  18.4979
  -3.250   0.0329   0.01065   0.00394  -0.0831  0.7911  0.1323  -1.5198   0.0000   0.0000   0.0000   2.8362
  -3.000   0.0610   0.01041   0.00377  -0.0832  0.7859  0.1506  -1.4041   0.0000   0.0000   0.0000   1.6403
  -2.750   0.0893   0.01019   0.00361  -0.0832  0.7817  0.1749  -1.2899   0.0000   0.0000   0.0000   1.1990
  -2.500   0.1175   0.00996   0.00348  -0.0833  0.7765  0.2034  -1.1781   0.0000   0.0000   0.0000   0.9701
  -2.250   0.1457   0.00973   0.00336  -0.0833  0.7721  0.2360  -1.0714   0.0000   0.0000   0.0000   0.8297
  -2.000   0.1740   0.00951   0.00325  -0.0834  0.7670  0.2730  -0.9714   0.0000   0.0000   0.0000   0.7350
  -1.750   0.2021   0.00926   0.00315  -0.0835  0.7622  0.3202  -0.8737   0.0000   0.0000   0.0000   0.6669
  -1.500   0.2300   0.00897   0.00305  -0.0835  0.7570  0.3798  -0.7786   0.0000   0.0000   0.0000   0.6157
  -1.250   0.2575   0.00864   0.00299  -0.0835  0.7511  0.4608  -0.7019   0.0000   0.0000   0.0000   0.5759
  -0.750   0.3116   0.00804   0.00293  -0.0830  0.7399  0.6346  -0.6585   0.0000   0.0000   0.0000   0.5165
  -0.500   0.3385   0.00786   0.00294  -0.0826  0.7339  0.7021  -0.6789   0.0000   0.0000   0.0000   0.4935
  -0.250   0.3654   0.00773   0.00292  -0.0820  0.7284  0.7520  -0.7007   0.0000   0.0000   0.0000   0.4736
   0.000   0.3920   0.00763   0.00293  -0.0815  0.7216  0.7922  -0.7255   0.0000   0.0000   0.0000   0.4565
   0.250   0.4184   0.00755   0.00293  -0.0808  0.7147  0.8281  -0.7503   0.0000   0.0000   0.0000   0.4414
   0.500   0.4439   0.00748   0.00292  -0.0799  0.7075  0.8632  -0.7755   0.0000   0.0000   0.0000   0.4279
   0.750   0.4685   0.00742   0.00290  -0.0788  0.6998  0.8994  -0.8004   0.0000   0.0000   0.0000   0.4155
   1.000   0.4944   0.00737   0.00286  -0.0779  0.6916  0.9339  -0.8262   0.0000   0.0000   0.0000   0.4046
   1.250   0.5286   0.00734   0.00281  -0.0788  0.6825  0.9658  -0.8588   0.0000   0.0000   0.0000   0.3959
   1.500   0.5697   0.00734   0.00276  -0.0815  0.6733  0.9896  -0.8959   0.0000   0.0000   0.0000   0.3896
   1.750   0.6055   0.00737   0.00274  -0.0832  0.6643  1.0000  -0.9349   0.0000   0.0000   0.0000   0.3836
   2.000   0.6321   0.00743   0.00275  -0.0830  0.6547  1.0000  -0.9695   0.0000   0.0000   0.0000   0.3772
   2.250   0.6591   0.00751   0.00277  -0.0828  0.6441  1.0000  -1.0050   0.0000   0.0000   0.0000   0.3713
   2.500   0.6862   0.00759   0.00280  -0.0826  0.6328  1.0000  -1.0418   0.0000   0.0000   0.0000   0.3658
   2.750   0.7133   0.00769   0.00283  -0.0825  0.6210  1.0000  -1.0795   0.0000   0.0000   0.0000   0.3607
   3.000   0.7404   0.00780   0.00289  -0.0823  0.6075  1.0000  -1.1183   0.0000   0.0000   0.0000   0.3560
   3.250   0.7675   0.00793   0.00295  -0.0821  0.5946  1.0000  -1.1586   0.0000   0.0000   0.0000   0.3516
   3.500   0.7946   0.00807   0.00304  -0.0820  0.5818  1.0000  -1.2044   0.0000   0.0000   0.0000   0.3475
   3.750   0.8215   0.00822   0.00313  -0.0818  0.5683  1.0000  -1.2504   0.0000   0.0000   0.0000   0.3436
   4.000   0.8483   0.00840   0.00325  -0.0816  0.5545  1.0000  -1.2968   0.0000   0.0000   0.0000   0.3400
   4.250   0.8749   0.00859   0.00338  -0.0814  0.5402  1.0000  -1.3472   0.0000   0.0000   0.0000   0.3365
   4.500   0.9013   0.00879   0.00352  -0.0812  0.5250  1.0000  -1.4003   0.0000   0.0000   0.0000   0.3333
   4.750   0.9274   0.00901   0.00368  -0.0809  0.5088  1.0000  -1.4558   0.0000   0.0000   0.0000   0.3301
   5.000   0.9532   0.00925   0.00386  -0.0806  0.4922  1.0000  -1.5173   0.0000   0.0000   0.0000   0.3272
   5.250   0.9789   0.00950   0.00405  -0.0803  0.4759  1.0000  -1.5804   0.0000   0.0000   0.0000   0.3243
   5.500   1.0044   0.00977   0.00426  -0.0800  0.4591  1.0000  -1.6474   0.0000   0.0000   0.0000   0.3216
   5.750   1.0294   0.01006   0.00448  -0.0796  0.4412  1.0000  -1.7148   0.0000   0.0000   0.0000   0.3190
   6.000   1.0542   0.01037   0.00473  -0.0792  0.4234  1.0000  -1.7841   0.0000   0.0000   0.0000   0.3165
   6.250   1.0786   0.01070   0.00499  -0.0787  0.4050  1.0000  -1.8615   0.0000   0.0000   0.0000   0.3140
   6.500   1.1024   0.01106   0.00528  -0.0781  0.3861  1.0000  -1.9550   0.0000   0.0000   0.0000   0.3117
   6.750   1.1259   0.01145   0.00559  -0.0776  0.3671  1.0000  -2.0559   0.0000   0.0000   0.0000   0.3093
   7.000   1.1489   0.01185   0.00592  -0.0769  0.3483  1.0000  -2.1576   0.0000   0.0000   0.0000   0.3071
   7.250   1.1715   0.01228   0.00627  -0.0763  0.3295  1.0000  -2.2597   0.0000   0.0000   0.0000   0.3049
   7.500   1.1933   0.01274   0.00666  -0.0755  0.3102  1.0000  -2.3617   0.0000   0.0000   0.0000   0.3027
   7.750   1.2148   0.01322   0.00706  -0.0747  0.2916  1.0000  -2.4801   0.0000   0.0000   0.0000   0.3006
   8.000   1.2356   0.01372   0.00749  -0.0738  0.2739  1.0000  -2.6013   0.0000   0.0000   0.0000   0.2985
   8.250   1.2556   0.01426   0.00795  -0.0728  0.2570  1.0000  -2.7224   0.0000   0.0000   0.0000   0.2964
   8.500   1.2752   0.01480   0.00843  -0.0717  0.2403  1.0000  -2.8440   0.0000   0.0000   0.0000   0.2943
   8.750   1.2937   0.01538   0.00894  -0.0706  0.2242  1.0000  -2.9646   0.0000   0.0000   0.0000   0.2922
   9.000   1.3102   0.01598   0.00948  -0.0691  0.2090  1.0000  -3.0813   0.0000   0.0000   0.0000   0.2900
   9.250   1.3257   0.01663   0.01007  -0.0675  0.1944  1.0000  -3.1967   0.0000   0.0000   0.0000   0.2878
   9.500   1.3416   0.01729   0.01070  -0.0660  0.1812  1.0000  -3.3144   0.0000   0.0000   0.0000   0.2858
   9.750   1.3566   0.01804   0.01139  -0.0646  0.1691  1.0000  -3.4306   0.0000   0.0000   0.0000   0.2838
  10.000   1.3710   0.01884   0.01216  -0.0631  0.1582  1.0000  -3.5460   0.0000   0.0000   0.0000   0.2818
  10.250   1.3857   0.01965   0.01295  -0.0618  0.1479  1.0000  -3.6634   0.0000   0.0000   0.0000   0.2799
  10.500   1.4000   0.02051   0.01379  -0.0605  0.1381  1.0000  -3.7807   0.0000   0.0000   0.0000   0.2781
  10.750   1.4138   0.02141   0.01469  -0.0592  0.1287  1.0000  -3.8973   0.0000   0.0000   0.0000   0.2764
  11.000   1.4269   0.02238   0.01565  -0.0579  0.1198  1.0000  -4.0129   0.0000   0.0000   0.0000   0.2746
  11.250   1.4392   0.02342   0.01668  -0.0566  0.1114  1.0000  -4.1268   0.0000   0.0000   0.0000   0.2729
  11.500   1.4508   0.02454   0.01778  -0.0553  0.1035  1.0000  -4.2390   0.0000   0.0000   0.0000   0.2713
  11.750   1.4615   0.02574   0.01898  -0.0539  0.0963  1.0000  -4.3489   0.0000   0.0000   0.0000   0.2696
  12.000   1.4709   0.02705   0.02028  -0.0526  0.0898  1.0000  -4.4550   0.0000   0.0000   0.0000   0.2680
  12.250   1.4805   0.02838   0.02163  -0.0513  0.0834  1.0000  -4.5619   0.0000   0.0000   0.0000   0.2665
  12.500   1.4899   0.02974   0.02301  -0.0500  0.0775  1.0000  -4.6713   0.0000   0.0000   0.0000   0.2650
  12.750   1.4977   0.03126   0.02455  -0.0488  0.0723  1.0000  -4.7781   0.0000   0.0000   0.0000   0.2635
  13.000   1.5034   0.03298   0.02627  -0.0475  0.0675  1.0000  -4.8782   0.0000   0.0000   0.0000   0.2620
  13.250   1.5110   0.03457   0.02791  -0.0464  0.0631  1.0000  -4.9842   0.0000   0.0000   0.0000   0.2606
  13.500   1.5131   0.03667   0.03002  -0.0451  0.0594  1.0000  -5.0702   0.0000   0.0000   0.0000   0.2592
  13.750   1.5204   0.03836   0.03179  -0.0441  0.0559  1.0000  -5.1744   0.0000   0.0000   0.0000   0.2579
  14.000   1.5216   0.04064   0.03409  -0.0430  0.0530  1.0000  -5.2565   0.0000   0.0000   0.0000   0.2567
  14.250   1.5249   0.04280   0.03633  -0.0421  0.0505  1.0000  -5.3436   0.0000   0.0000   0.0000   0.2555
  14.500   1.5283   0.04502   0.03861  -0.0413  0.0481  1.0000  -5.4400   0.0000   0.0000   0.0000   0.2544
  14.750   1.5266   0.04784   0.04147  -0.0406  0.0461  1.0000  -5.5176   0.0000   0.0000   0.0000   0.2534
  15.000   1.5263   0.05061   0.04432  -0.0401  0.0444  1.0000  -5.5984   0.0000   0.0000   0.0000   0.2525
  15.250   1.5290   0.05313   0.04694  -0.0397  0.0428  1.0000  -5.6927   0.0000   0.0000   0.0000   0.2516
  15.500   1.5295   0.05596   0.04985  -0.0394  0.0414  1.0000  -5.7780   0.0000   0.0000   0.0000   0.2509
  15.750   1.5266   0.05926   0.05322  -0.0393  0.0402  1.0000  -5.8478   0.0000   0.0000   0.0000   0.2503
  16.000   1.5185   0.06324   0.05725  -0.0393  0.0390  1.0000  -5.8899   0.0000   0.0000   0.0000   0.2499
  16.250   1.5176   0.06645   0.06057  -0.0394  0.0382  1.0000  -5.9805   0.0000   0.0000   0.0000   0.2494
  16.500   1.5171   0.06967   0.06390  -0.0396  0.0372  1.0000  -6.0934   0.0000   0.0000   0.0000   0.2489
  16.750   1.5152   0.07313   0.06746  -0.0399  0.0363  1.0000  -6.1979   0.0000   0.0000   0.0000   0.2486
  17.000   1.5123   0.07677   0.07118  -0.0404  0.0355  1.0000  -6.2965   0.0000   0.0000   0.0000   0.2484
  17.250   1.5081   0.08062   0.07512  -0.0411  0.0348  1.0000  -6.3859   0.0000   0.0000   0.0000   0.2483
  17.500   1.5022   0.08474   0.07931  -0.0418  0.0341  1.0000  -6.4628   0.0000   0.0000   0.0000   0.2483
  17.750   1.4946   0.08904   0.08366  -0.0426  0.0334  1.0000  -6.5270   0.0000   0.0000   0.0000   0.2484
  18.000   1.4880   0.09314   0.08782  -0.0432  0.0328  1.0000  -6.5936   0.0000   0.0000   0.0000   0.2484
  18.250   1.4861   0.09688   0.09169  -0.0442  0.0324  1.0000  -6.6911   0.0000   0.0000   0.0000   0.2485
  18.500   1.4836   0.10071   0.09563  -0.0453  0.0319  1.0000  -6.7839   0.0000   0.0000   0.0000   0.2486
  18.750   1.4810   0.10457   0.09961  -0.0465  0.0314  1.0000  -6.8746   0.0000   0.0000   0.0000   0.2489
  19.000   1.4785   0.10846   0.10359  -0.0478  0.0309  1.0000  -6.9647   0.0000   0.0000   0.0000   0.2492
  19.250   1.4759   0.11235   0.10757  -0.0492  0.0304  1.0000  -7.0539   0.0000   0.0000   0.0000   0.2495
  19.500   1.4737   0.11622   0.11152  -0.0507  0.0299  1.0000  -7.1436   0.0000   0.0000   0.0000   0.2500
  19.750   1.4718   0.12004   0.11542  -0.0522  0.0294  1.0000  -7.2349   0.0000   0.0000   0.0000   0.2504
  20.000   1.4702   0.12381   0.11925  -0.0539  0.0290  1.0000  -7.3276   0.0000   0.0000   0.0000   0.2510


