xflr5 v6.61

 Calculated polar for: QX0126

 1 1 Reynolds number fixed          Mach number fixed         

 xtrf =   1.000 (top)        1.000 (bottom)
 Mach =   0.000     Re =     0.640 e 6     Ncrit =   9.000

  alpha     CL        CD       CDp       Cm    Top Xtr Bot Xtr   Cpmin    Chinge    XCp    
 ------- -------- --------- --------- -------- ------- ------- -------- --------- ---------
 -10.000  -0.7023   0.02055   0.01527  -0.0824  0.8702  0.0250  -6.1708   0.0000   0.0000   0.0000   0.1195
  -9.750  -0.6777   0.01993   0.01455  -0.0822  0.8662  0.0257  -5.9485   0.0000   0.0000   0.0000   0.1156
  -9.500  -0.6529   0.01931   0.01380  -0.0820  0.8629  0.0264  -5.7319   0.0000   0.0000   0.0000   0.1115
  -9.250  -0.6273   0.01870   0.01309  -0.0819  0.8590  0.0269  -5.5167   0.0000   0.0000   0.0000   0.1066
  -9.000  -0.6015   0.01820   0.01246  -0.0818  0.8557  0.0273  -5.3015   0.0000   0.0000   0.0000   0.1014
  -8.750  -0.5787   0.01688   0.01106  -0.0815  0.8521  0.0283  -5.1205   0.0000   0.0000   0.0000   0.0964
  -8.500  -0.5525   0.01639   0.01054  -0.0815  0.8485  0.0290  -4.8997   0.0000   0.0000   0.0000   0.0899
  -8.250  -0.5261   0.01598   0.01007  -0.0814  0.8455  0.0299  -4.6829   0.0000   0.0000   0.0000   0.0828
  -8.000  -0.4993   0.01550   0.00953  -0.0813  0.8415  0.0307  -4.4827   0.0000   0.0000   0.0000   0.0745
  -7.750  -0.4725   0.01505   0.00899  -0.0812  0.8380  0.0316  -4.2895   0.0000   0.0000   0.0000   0.0655
  -7.500  -0.4452   0.01470   0.00856  -0.0812  0.8346  0.0323  -4.0944   0.0000   0.0000   0.0000   0.0550
  -7.250  -0.4196   0.01389   0.00771  -0.0810  0.8308  0.0336  -3.9194   0.0000   0.0000   0.0000   0.0441
  -7.000  -0.3927   0.01349   0.00726  -0.0809  0.8277  0.0349  -3.7292   0.0000   0.0000   0.0000   0.0310
  -6.750  -0.3650   0.01312   0.00687  -0.0810  0.8236  0.0362  -3.5518   0.0000   0.0000   0.0000   0.0150
  -6.500  -0.3374   0.01279   0.00648  -0.0809  0.8202  0.0376  -3.3789   0.0000   0.0000   0.0000  -0.0033
  -6.250  -0.3101   0.01233   0.00596  -0.0809  0.8168  0.0393  -3.2168   0.0000   0.0000   0.0000  -0.0246
  -6.000  -0.2825   0.01194   0.00558  -0.0809  0.8130  0.0418  -3.0575   0.0000   0.0000   0.0000  -0.0506
  -5.750  -0.2545   0.01170   0.00528  -0.0809  0.8099  0.0442  -2.8990   0.0000   0.0000   0.0000  -0.0827
  -5.500  -0.2267   0.01130   0.00488  -0.0809  0.8056  0.0473  -2.7481   0.0000   0.0000   0.0000  -0.1227
  -5.250  -0.1985   0.01106   0.00462  -0.0809  0.8020  0.0506  -2.5962   0.0000   0.0000   0.0000  -0.1746
  -5.000  -0.1703   0.01078   0.00432  -0.0809  0.7982  0.0541  -2.4561   0.0000   0.0000   0.0000  -0.2439
  -4.750  -0.1419   0.01055   0.00408  -0.0810  0.7943  0.0582  -2.3140   0.0000   0.0000   0.0000  -0.3418
  -4.500  -0.1136   0.01030   0.00382  -0.0810  0.7909  0.0631  -2.1759   0.0000   0.0000   0.0000  -0.4874
  -4.250  -0.0850   0.01009   0.00361  -0.0811  0.7864  0.0691  -2.0386   0.0000   0.0000   0.0000  -0.7342
  -4.000  -0.0566   0.00987   0.00341  -0.0812  0.7830  0.0772  -1.9039   0.0000   0.0000   0.0000  -1.2263
  -3.750  -0.0280   0.00966   0.00325  -0.0813  0.7784  0.0876  -1.7796   0.0000   0.0000   0.0000  -2.7352
  -3.500   0.0005   0.00946   0.00306  -0.0814  0.7745  0.0996  -1.6572   0.0000   0.0000   0.0000  152.3434
  -3.250   0.0292   0.00925   0.00292  -0.0815  0.7696  0.1139  -1.5363   0.0000   0.0000   0.0000   3.1073
  -3.000   0.0578   0.00908   0.00277  -0.0816  0.7654  0.1309  -1.4175   0.0000   0.0000   0.0000   1.6900
  -2.750   0.0864   0.00889   0.00265  -0.0817  0.7605  0.1486  -1.3012   0.0000   0.0000   0.0000   1.2120
  -2.500   0.1150   0.00870   0.00253  -0.0818  0.7563  0.1724  -1.1875   0.0000   0.0000   0.0000   0.9723
  -2.250   0.1437   0.00851   0.00244  -0.0820  0.7512  0.2000  -1.0773   0.0000   0.0000   0.0000   0.8279
  -2.000   0.1723   0.00833   0.00233  -0.0821  0.7467  0.2295  -0.9760   0.0000   0.0000   0.0000   0.7316
  -1.750   0.2010   0.00814   0.00225  -0.0822  0.7407  0.2627  -0.8769   0.0000   0.0000   0.0000   0.6628
  -1.500   0.2295   0.00795   0.00217  -0.0823  0.7355  0.3027  -0.7804   0.0000   0.0000   0.0000   0.6112
  -1.250   0.2580   0.00774   0.00210  -0.0825  0.7299  0.3524  -0.7027   0.0000   0.0000   0.0000   0.5712
  -1.000   0.2862   0.00747   0.00206  -0.0826  0.7239  0.4194  -0.6415   0.0000   0.0000   0.0000   0.5393
  -0.750   0.3139   0.00717   0.00202  -0.0827  0.7183  0.5114  -0.6613   0.0000   0.0000   0.0000   0.5133
  -0.500   0.3418   0.00693   0.00202  -0.0826  0.7120  0.5898  -0.6819   0.0000   0.0000   0.0000   0.4912
  -0.250   0.3694   0.00674   0.00204  -0.0825  0.7053  0.6603  -0.7040   0.0000   0.0000   0.0000   0.4722
   0.000   0.3971   0.00661   0.00205  -0.0823  0.6982  0.7151  -0.7295   0.0000   0.0000   0.0000   0.4556
   0.250   0.4247   0.00653   0.00205  -0.0820  0.6905  0.7560  -0.7552   0.0000   0.0000   0.0000   0.4412
   0.500   0.4522   0.00648   0.00206  -0.0817  0.6822  0.7903  -0.7816   0.0000   0.0000   0.0000   0.4284
   0.750   0.4793   0.00643   0.00208  -0.0813  0.6734  0.8245  -0.8079   0.0000   0.0000   0.0000   0.4170
   1.000   0.5054   0.00639   0.00211  -0.0806  0.6646  0.8600  -0.8338   0.0000   0.0000   0.0000   0.4066
   1.250   0.5309   0.00637   0.00214  -0.0798  0.6562  0.8936  -0.8611   0.0000   0.0000   0.0000   0.3971
   1.500   0.5560   0.00635   0.00216  -0.0789  0.6474  0.9270  -0.8883   0.0000   0.0000   0.0000   0.3883
   1.750   0.5855   0.00636   0.00217  -0.0789  0.6374  0.9602  -0.9217   0.0000   0.0000   0.0000   0.3809
   2.000   0.6238   0.00640   0.00217  -0.0810  0.6259  0.9869  -0.9647   0.0000   0.0000   0.0000   0.3758
   2.250   0.6594   0.00648   0.00218  -0.0827  0.6133  1.0000  -1.0066   0.0000   0.0000   0.0000   0.3710
   2.500   0.6865   0.00659   0.00223  -0.0826  0.6004  1.0000  -1.0435   0.0000   0.0000   0.0000   0.3656
   2.750   0.7137   0.00671   0.00228  -0.0825  0.5869  1.0000  -1.0812   0.0000   0.0000   0.0000   0.3606
   3.000   0.7410   0.00684   0.00235  -0.0824  0.5741  1.0000  -1.1203   0.0000   0.0000   0.0000   0.3559
   3.250   0.7684   0.00698   0.00243  -0.0823  0.5608  1.0000  -1.1612   0.0000   0.0000   0.0000   0.3516
   3.500   0.7955   0.00715   0.00253  -0.0822  0.5474  1.0000  -1.2071   0.0000   0.0000   0.0000   0.3475
   3.750   0.8228   0.00731   0.00264  -0.0821  0.5333  1.0000  -1.2534   0.0000   0.0000   0.0000   0.3438
   4.000   0.8497   0.00750   0.00276  -0.0820  0.5189  1.0000  -1.2999   0.0000   0.0000   0.0000   0.3402
   4.250   0.8764   0.00770   0.00289  -0.0818  0.5029  1.0000  -1.3504   0.0000   0.0000   0.0000   0.3368
   4.500   0.9031   0.00791   0.00303  -0.0816  0.4862  1.0000  -1.4038   0.0000   0.0000   0.0000   0.3335
   4.750   0.9296   0.00813   0.00319  -0.0815  0.4703  1.0000  -1.4600   0.0000   0.0000   0.0000   0.3305
   5.000   0.9559   0.00837   0.00336  -0.0813  0.4543  1.0000  -1.5226   0.0000   0.0000   0.0000   0.3276
   5.250   0.9819   0.00863   0.00355  -0.0810  0.4371  1.0000  -1.5871   0.0000   0.0000   0.0000   0.3248
   5.500   1.0076   0.00890   0.00375  -0.0808  0.4195  1.0000  -1.6547   0.0000   0.0000   0.0000   0.3221
   5.750   1.0331   0.00919   0.00397  -0.0805  0.4018  1.0000  -1.7226   0.0000   0.0000   0.0000   0.3196
   6.000   1.0582   0.00950   0.00420  -0.0801  0.3833  1.0000  -1.7930   0.0000   0.0000   0.0000   0.3171
   6.250   1.0831   0.00983   0.00445  -0.0798  0.3643  1.0000  -1.8715   0.0000   0.0000   0.0000   0.3147
   6.500   1.1077   0.01017   0.00472  -0.0794  0.3457  1.0000  -1.9721   0.0000   0.0000   0.0000   0.3124
   6.750   1.1319   0.01054   0.00500  -0.0789  0.3273  1.0000  -2.0749   0.0000   0.0000   0.0000   0.3102
   7.000   1.1555   0.01094   0.00531  -0.0784  0.3077  1.0000  -2.1781   0.0000   0.0000   0.0000   0.3079
   7.250   1.1788   0.01134   0.00564  -0.0778  0.2888  1.0000  -2.2822   0.0000   0.0000   0.0000   0.3058
   7.500   1.2019   0.01176   0.00598  -0.0772  0.2718  1.0000  -2.3905   0.0000   0.0000   0.0000   0.3037
   7.750   1.2242   0.01221   0.00635  -0.0765  0.2547  1.0000  -2.5146   0.0000   0.0000   0.0000   0.3016
   8.000   1.2459   0.01269   0.00675  -0.0758  0.2372  1.0000  -2.6391   0.0000   0.0000   0.0000   0.2996
   8.250   1.2669   0.01320   0.00717  -0.0749  0.2203  1.0000  -2.7637   0.0000   0.0000   0.0000   0.2976
   8.500   1.2876   0.01371   0.00760  -0.0740  0.2035  1.0000  -2.8894   0.0000   0.0000   0.0000   0.2956
   8.750   1.3078   0.01422   0.00805  -0.0731  0.1881  1.0000  -3.0156   0.0000   0.0000   0.0000   0.2936
   9.000   1.3271   0.01477   0.00853  -0.0720  0.1751  1.0000  -3.1412   0.0000   0.0000   0.0000   0.2916
   9.250   1.3450   0.01529   0.00901  -0.0707  0.1636  1.0000  -3.2646   0.0000   0.0000   0.0000   0.2895
   9.500   1.3618   0.01586   0.00955  -0.0692  0.1532  1.0000  -3.3863   0.0000   0.0000   0.0000   0.2874
   9.750   1.3783   0.01648   0.01014  -0.0679  0.1434  1.0000  -3.5084   0.0000   0.0000   0.0000   0.2854
  10.000   1.3944   0.01714   0.01077  -0.0665  0.1338  1.0000  -3.6308   0.0000   0.0000   0.0000   0.2835
  10.250   1.4100   0.01786   0.01145  -0.0652  0.1245  1.0000  -3.7527   0.0000   0.0000   0.0000   0.2816
  10.750   1.4395   0.01945   0.01299  -0.0625  0.1070  1.0000  -3.9951   0.0000   0.0000   0.0000   0.2779
  11.250   1.4669   0.02125   0.01476  -0.0599  0.0918  1.0000  -4.2352   0.0000   0.0000   0.0000   0.2745
  11.500   1.4805   0.02218   0.01569  -0.0586  0.0851  1.0000  -4.3561   0.0000   0.0000   0.0000   0.2728
  11.750   1.4931   0.02320   0.01671  -0.0573  0.0791  1.0000  -4.4745   0.0000   0.0000   0.0000   0.2712
  12.000   1.5044   0.02433   0.01784  -0.0560  0.0735  1.0000  -4.5897   0.0000   0.0000   0.0000   0.2696
  12.250   1.5155   0.02549   0.01901  -0.0547  0.0681  1.0000  -4.7043   0.0000   0.0000   0.0000   0.2680
  12.500   1.5266   0.02667   0.02020  -0.0535  0.0633  1.0000  -4.8255   0.0000   0.0000   0.0000   0.2665
  12.750   1.5353   0.02805   0.02159  -0.0522  0.0588  1.0000  -4.9390   0.0000   0.0000   0.0000   0.2649
  13.000   1.5449   0.02939   0.02295  -0.0510  0.0547  1.0000  -5.0562   0.0000   0.0000   0.0000   0.2634
  13.250   1.5524   0.03092   0.02451  -0.0497  0.0512  1.0000  -5.1654   0.0000   0.0000   0.0000   0.2620
  13.500   1.5604   0.03243   0.02606  -0.0485  0.0480  1.0000  -5.2773   0.0000   0.0000   0.0000   0.2605
  13.750   1.5645   0.03431   0.02796  -0.0472  0.0450  1.0000  -5.3737   0.0000   0.0000   0.0000   0.2591
  14.000   1.5725   0.03588   0.02960  -0.0462  0.0428  1.0000  -5.4855   0.0000   0.0000   0.0000   0.2578
  14.250   1.5769   0.03781   0.03156  -0.0451  0.0406  1.0000  -5.5942   0.0000   0.0000   0.0000   0.2565
  14.500   1.5771   0.04017   0.03396  -0.0439  0.0387  1.0000  -5.6836   0.0000   0.0000   0.0000   0.2553
  14.750   1.5832   0.04205   0.03593  -0.0432  0.0374  1.0000  -5.7996   0.0000   0.0000   0.0000   0.2541
  15.000   1.5869   0.04423   0.03818  -0.0424  0.0360  1.0000  -5.9055   0.0000   0.0000   0.0000   0.2530
  15.250   1.5883   0.04672   0.04072  -0.0418  0.0347  1.0000  -6.0224   0.0000   0.0000   0.0000   0.2521
  15.500   1.5850   0.04980   0.04386  -0.0412  0.0335  1.0000  -6.1281   0.0000   0.0000   0.0000   0.2512
  15.750   1.5835   0.05280   0.04695  -0.0407  0.0326  1.0000  -6.2429   0.0000   0.0000   0.0000   0.2504
  16.000   1.5862   0.05536   0.04961  -0.0405  0.0318  1.0000  -6.3852   0.0000   0.0000   0.0000   0.2496
  16.250   1.5869   0.05823   0.05258  -0.0404  0.0311  1.0000  -6.5152   0.0000   0.0000   0.0000   0.2489
  16.500   1.5862   0.06133   0.05576  -0.0404  0.0303  1.0000  -6.6371   0.0000   0.0000   0.0000   0.2483
  16.750   1.5837   0.06471   0.05923  -0.0405  0.0297  1.0000  -6.7480   0.0000   0.0000   0.0000   0.2479
  17.000   1.5791   0.06844   0.06304  -0.0408  0.0291  1.0000  -6.8448   0.0000   0.0000   0.0000   0.2475
  17.250   1.5717   0.07261   0.06730  -0.0413  0.0285  1.0000  -6.9217   0.0000   0.0000   0.0000   0.2474
  17.500   1.5608   0.07732   0.07210  -0.0420  0.0280  1.0000  -6.9730   0.0000   0.0000   0.0000   0.2474
  17.750   1.5482   0.08233   0.07721  -0.0429  0.0275  1.0000  -7.0089   0.0000   0.0000   0.0000   0.2476
  18.000   1.5457   0.08608   0.08107  -0.0436  0.0272  1.0000  -7.1139   0.0000   0.0000   0.0000   0.2475
  18.250   1.5417   0.09005   0.08515  -0.0446  0.0269  1.0000  -7.2076   0.0000   0.0000   0.0000   0.2476
  18.500   1.5367   0.09420   0.08940  -0.0456  0.0265  1.0000  -7.2931   0.0000   0.0000   0.0000   0.2477
  18.750   1.5311   0.09849   0.09379  -0.0468  0.0261  1.0000  -7.3726   0.0000   0.0000   0.0000   0.2480
  19.000   1.5252   0.10288   0.09827  -0.0482  0.0258  1.0000  -7.4471   0.0000   0.0000   0.0000   0.2484
  19.250   1.5193   0.10729   0.10278  -0.0496  0.0254  1.0000  -7.5202   0.0000   0.0000   0.0000   0.2489
  19.500   1.5135   0.11173   0.10731  -0.0513  0.0251  1.0000  -7.5919   0.0000   0.0000   0.0000   0.2494
  19.750   1.5079   0.11617   0.11183  -0.0530  0.0247  1.0000  -7.6626   0.0000   0.0000   0.0000   0.2501
  20.000   1.5023   0.12066   0.11641  -0.0549  0.0244  1.0000  -7.7299   0.0000   0.0000   0.0000   0.2508


