xflr5 v6.61

 Calculated polar for: QX0126

 1 1 Reynolds number fixed          Mach number fixed         

 xtrf =   1.000 (top)        1.000 (bottom)
 Mach =   0.000     Re =     0.380 e 6     Ncrit =   9.000

  alpha     CL        CD       CDp       Cm    Top Xtr Bot Xtr   Cpmin    Chinge    XCp    
 ------- -------- --------- --------- -------- ------- ------- -------- --------- ---------
 -10.000  -0.6394   0.03108   0.02643  -0.0901  0.9127  0.0312  -5.4528   0.0000   0.0000   0.0000   0.0956
  -9.750  -0.6257   0.02896   0.02391  -0.0896  0.9075  0.0319  -5.3512   0.0000   0.0000   0.0000   0.0935
  -9.500  -0.6076   0.02745   0.02204  -0.0891  0.9021  0.0324  -5.2228   0.0000   0.0000   0.0000   0.0901
  -9.250  -0.5912   0.02489   0.01923  -0.0887  0.8975  0.0332  -5.1150   0.0000   0.0000   0.0000   0.0868
  -9.000  -0.5686   0.02389   0.01819  -0.0885  0.8930  0.0340  -4.9233   0.0000   0.0000   0.0000   0.0814
  -8.750  -0.5452   0.02312   0.01731  -0.0882  0.8891  0.0349  -4.7321   0.0000   0.0000   0.0000   0.0753
  -8.500  -0.5212   0.02223   0.01629  -0.0879  0.8847  0.0359  -4.5513   0.0000   0.0000   0.0000   0.0683
  -8.250  -0.4976   0.02126   0.01513  -0.0875  0.8811  0.0369  -4.3832   0.0000   0.0000   0.0000   0.0612
  -8.000  -0.4725   0.02040   0.01409  -0.0873  0.8765  0.0378  -4.2146   0.0000   0.0000   0.0000   0.0522
  -7.750  -0.4485   0.01940   0.01289  -0.0868  0.8730  0.0388  -4.0616   0.0000   0.0000   0.0000   0.0433
  -7.500  -0.4236   0.01840   0.01188  -0.0867  0.8685  0.0402  -3.8925   0.0000   0.0000   0.0000   0.0321
  -7.250  -0.3981   0.01782   0.01125  -0.0864  0.8648  0.0415  -3.7171   0.0000   0.0000   0.0000   0.0197
  -7.000  -0.3718   0.01723   0.01057  -0.0862  0.8606  0.0429  -3.5481   0.0000   0.0000   0.0000   0.0046
  -6.750  -0.3454   0.01670   0.00992  -0.0859  0.8567  0.0444  -3.3914   0.0000   0.0000   0.0000  -0.0126
  -6.500  -0.3200   0.01590   0.00907  -0.0856  0.8529  0.0463  -3.2444   0.0000   0.0000   0.0000  -0.0318
  -6.250  -0.2934   0.01545   0.00862  -0.0855  0.8485  0.0486  -3.0817   0.0000   0.0000   0.0000  -0.0560
  -6.000  -0.2667   0.01505   0.00814  -0.0852  0.8452  0.0511  -2.9359   0.0000   0.0000   0.0000  -0.0847
  -5.750  -0.2402   0.01444   0.00752  -0.0851  0.8406  0.0539  -2.7999   0.0000   0.0000   0.0000  -0.1202
  -5.500  -0.2133   0.01407   0.00712  -0.0848  0.8373  0.0573  -2.6544   0.0000   0.0000   0.0000  -0.1648
  -5.250  -0.1861   0.01367   0.00669  -0.0848  0.8327  0.0614  -2.5155   0.0000   0.0000   0.0000  -0.2240
  -5.000  -0.1589   0.01334   0.00635  -0.0846  0.8289  0.0660  -2.3815   0.0000   0.0000   0.0000  -0.3028
  -4.750  -0.1316   0.01297   0.00599  -0.0845  0.8245  0.0709  -2.2520   0.0000   0.0000   0.0000  -0.4152
  -4.500  -0.1038   0.01272   0.00570  -0.0844  0.8204  0.0767  -2.1211   0.0000   0.0000   0.0000  -0.5899
  -4.250  -0.0761   0.01245   0.00544  -0.0843  0.8164  0.0843  -1.9907   0.0000   0.0000   0.0000  -0.8925
  -4.000  -0.0484   0.01216   0.00516  -0.0843  0.8120  0.0941  -1.8633   0.0000   0.0000   0.0000  -1.5428
  -3.750  -0.0209   0.01182   0.00489  -0.0842  0.8080  0.1068  -1.7456   0.0000   0.0000   0.0000  -3.8930
  -3.500   0.0071   0.01158   0.00469  -0.0842  0.8034  0.1225  -1.6278   0.0000   0.0000   0.0000  12.4036
  -3.250   0.0350   0.01133   0.00448  -0.0841  0.7995  0.1398  -1.5118   0.0000   0.0000   0.0000   2.7062
  -3.000   0.0629   0.01107   0.00430  -0.0842  0.7945  0.1600  -1.3972   0.0000   0.0000   0.0000   1.6146
  -2.750   0.0909   0.01083   0.00414  -0.0841  0.7902  0.1861  -1.2842   0.0000   0.0000   0.0000   1.1922
  -2.500   0.1189   0.01058   0.00399  -0.0842  0.7850  0.2164  -1.1735   0.0000   0.0000   0.0000   0.9691
  -2.250   0.1469   0.01034   0.00386  -0.0842  0.7803  0.2521  -1.0685   0.0000   0.0000   0.0000   0.8309
  -2.000   0.1749   0.01008   0.00374  -0.0842  0.7755  0.2943  -0.9692   0.0000   0.0000   0.0000   0.7370
  -1.750   0.2027   0.00981   0.00365  -0.0842  0.7705  0.3495  -0.8723   0.0000   0.0000   0.0000   0.6695
  -1.500   0.2301   0.00947   0.00353  -0.0842  0.7657  0.4207  -0.7780   0.0000   0.0000   0.0000   0.6184
  -1.250   0.2570   0.00910   0.00350  -0.0840  0.7598  0.5143  -0.7019   0.0000   0.0000   0.0000   0.5786
  -1.000   0.2837   0.00879   0.00344  -0.0836  0.7548  0.6024  -0.6376   0.0000   0.0000   0.0000   0.5456
  -0.750   0.3102   0.00856   0.00345  -0.0831  0.7487  0.6790  -0.6568   0.0000   0.0000   0.0000   0.5181
  -0.500   0.3365   0.00839   0.00345  -0.0825  0.7426  0.7374  -0.6771   0.0000   0.0000   0.0000   0.4947
  -0.250   0.3630   0.00827   0.00341  -0.0818  0.7372  0.7816  -0.6987   0.0000   0.0000   0.0000   0.4743
   0.000   0.3890   0.00818   0.00341  -0.0810  0.7305  0.8207  -0.7230   0.0000   0.0000   0.0000   0.4568
   0.250   0.4144   0.00810   0.00340  -0.0800  0.7238  0.8564  -0.7473   0.0000   0.0000   0.0000   0.4414
   0.500   0.4389   0.00803   0.00337  -0.0788  0.7171  0.8929  -0.7719   0.0000   0.0000   0.0000   0.4274
   0.750   0.4647   0.00796   0.00331  -0.0778  0.7101  0.9283  -0.7975   0.0000   0.0000   0.0000   0.4149
   1.000   0.4979   0.00791   0.00324  -0.0785  0.7020  0.9612  -0.8277   0.0000   0.0000   0.0000   0.4048
   1.250   0.5396   0.00787   0.00315  -0.0812  0.6931  0.9862  -0.8650   0.0000   0.0000   0.0000   0.3973
   1.500   0.5793   0.00786   0.00308  -0.0837  0.6838  1.0000  -0.9013   0.0000   0.0000   0.0000   0.3910
   1.750   0.6053   0.00791   0.00307  -0.0834  0.6749  1.0000  -0.9341   0.0000   0.0000   0.0000   0.3839
   2.000   0.6320   0.00797   0.00307  -0.0831  0.6659  1.0000  -0.9687   0.0000   0.0000   0.0000   0.3775
   2.250   0.6589   0.00803   0.00308  -0.0829  0.6559  1.0000  -1.0041   0.0000   0.0000   0.0000   0.3715
   2.500   0.6860   0.00811   0.00311  -0.0828  0.6449  1.0000  -1.0409   0.0000   0.0000   0.0000   0.3660
   2.750   0.7131   0.00819   0.00314  -0.0826  0.6332  1.0000  -1.0785   0.0000   0.0000   0.0000   0.3609
   3.000   0.7402   0.00829   0.00318  -0.0824  0.6211  1.0000  -1.1173   0.0000   0.0000   0.0000   0.3561
   3.250   0.7672   0.00840   0.00324  -0.0822  0.6074  1.0000  -1.1574   0.0000   0.0000   0.0000   0.3517
   3.500   0.7941   0.00854   0.00331  -0.0820  0.5948  1.0000  -1.2031   0.0000   0.0000   0.0000   0.3475
   3.750   0.8211   0.00868   0.00341  -0.0818  0.5817  1.0000  -1.2491   0.0000   0.0000   0.0000   0.3437
   4.000   0.8478   0.00885   0.00351  -0.0816  0.5680  1.0000  -1.2953   0.0000   0.0000   0.0000   0.3400
   4.250   0.8743   0.00902   0.00364  -0.0814  0.5539  1.0000  -1.3458   0.0000   0.0000   0.0000   0.3365
   4.500   0.9006   0.00923   0.00378  -0.0811  0.5395  1.0000  -1.3986   0.0000   0.0000   0.0000   0.3332
   4.750   0.9267   0.00944   0.00394  -0.0808  0.5236  1.0000  -1.4542   0.0000   0.0000   0.0000   0.3301
   5.000   0.9524   0.00967   0.00411  -0.0805  0.5071  1.0000  -1.5152   0.0000   0.0000   0.0000   0.3271
   5.250   0.9780   0.00993   0.00431  -0.0801  0.4905  1.0000  -1.5777   0.0000   0.0000   0.0000   0.3242
   5.500   1.0032   0.01020   0.00451  -0.0797  0.4742  1.0000  -1.6445   0.0000   0.0000   0.0000   0.3215
   5.750   1.0280   0.01049   0.00474  -0.0793  0.4570  1.0000  -1.7114   0.0000   0.0000   0.0000   0.3188
   6.000   1.0526   0.01080   0.00499  -0.0788  0.4388  1.0000  -1.7802   0.0000   0.0000   0.0000   0.3163
   6.250   1.0768   0.01113   0.00526  -0.0783  0.4208  1.0000  -1.8574   0.0000   0.0000   0.0000   0.3138
   6.750   1.1237   0.01187   0.00587  -0.0771  0.3830  1.0000  -2.0485   0.0000   0.0000   0.0000   0.3090
   7.000   1.1465   0.01228   0.00620  -0.0764  0.3639  1.0000  -2.1496   0.0000   0.0000   0.0000   0.3068
   7.250   1.1688   0.01271   0.00657  -0.0757  0.3449  1.0000  -2.2510   0.0000   0.0000   0.0000   0.3045
   7.500   1.1905   0.01317   0.00696  -0.0749  0.3258  1.0000  -2.3526   0.0000   0.0000   0.0000   0.3023
   7.750   1.2114   0.01367   0.00738  -0.0740  0.3066  1.0000  -2.4667   0.0000   0.0000   0.0000   0.3002
   8.000   1.2318   0.01418   0.00782  -0.0730  0.2882  1.0000  -2.5864   0.0000   0.0000   0.0000   0.2980
   8.250   1.2513   0.01473   0.00830  -0.0719  0.2707  1.0000  -2.7060   0.0000   0.0000   0.0000   0.2959
   8.500   1.2701   0.01531   0.00881  -0.0708  0.2543  1.0000  -2.8249   0.0000   0.0000   0.0000   0.2938
   8.750   1.2877   0.01592   0.00935  -0.0695  0.2383  1.0000  -2.9424   0.0000   0.0000   0.0000   0.2916
   9.000   1.3035   0.01653   0.00991  -0.0679  0.2228  1.0000  -3.0568   0.0000   0.0000   0.0000   0.2894
   9.250   1.3189   0.01720   0.01053  -0.0663  0.2081  1.0000  -3.1711   0.0000   0.0000   0.0000   0.2872
   9.750   1.3485   0.01869   0.01193  -0.0633  0.1809  1.0000  -3.4002   0.0000   0.0000   0.0000   0.2831
  10.000   1.3626   0.01953   0.01273  -0.0619  0.1690  1.0000  -3.5140   0.0000   0.0000   0.0000   0.2812
  10.250   1.3758   0.02043   0.01360  -0.0604  0.1581  1.0000  -3.6266   0.0000   0.0000   0.0000   0.2793
  10.500   1.3895   0.02134   0.01450  -0.0591  0.1477  1.0000  -3.7410   0.0000   0.0000   0.0000   0.2775
  10.750   1.4027   0.02230   0.01545  -0.0578  0.1378  1.0000  -3.8551   0.0000   0.0000   0.0000   0.2757
  11.000   1.4153   0.02332   0.01646  -0.0565  0.1285  1.0000  -3.9682   0.0000   0.0000   0.0000   0.2740
  11.250   1.4272   0.02440   0.01754  -0.0552  0.1197  1.0000  -4.0798   0.0000   0.0000   0.0000   0.2723
  11.500   1.4383   0.02557   0.01870  -0.0538  0.1115  1.0000  -4.1895   0.0000   0.0000   0.0000   0.2706
  11.750   1.4486   0.02681   0.01994  -0.0525  0.1039  1.0000  -4.2969   0.0000   0.0000   0.0000   0.2690
  12.000   1.4577   0.02817   0.02129  -0.0512  0.0969  1.0000  -4.4010   0.0000   0.0000   0.0000   0.2674
  12.250   1.4650   0.02969   0.02280  -0.0498  0.0906  1.0000  -4.4992   0.0000   0.0000   0.0000   0.2658
  12.500   1.4742   0.03109   0.02425  -0.0486  0.0842  1.0000  -4.6048   0.0000   0.0000   0.0000   0.2643
  12.750   1.4819   0.03264   0.02583  -0.0474  0.0785  1.0000  -4.7100   0.0000   0.0000   0.0000   0.2628
  13.000   1.4869   0.03445   0.02764  -0.0461  0.0736  1.0000  -4.8057   0.0000   0.0000   0.0000   0.2614
  13.250   1.4929   0.03621   0.02944  -0.0450  0.0687  1.0000  -4.9049   0.0000   0.0000   0.0000   0.2600
  13.500   1.4973   0.03815   0.03142  -0.0439  0.0647  1.0000  -4.9972   0.0000   0.0000   0.0000   0.2587
  13.750   1.5005   0.04024   0.03354  -0.0428  0.0610  1.0000  -5.0854   0.0000   0.0000   0.0000   0.2574
  14.000   1.5023   0.04251   0.03587  -0.0418  0.0579  1.0000  -5.1664   0.0000   0.0000   0.0000   0.2562
  14.250   1.5057   0.04471   0.03814  -0.0410  0.0549  1.0000  -5.2535   0.0000   0.0000   0.0000   0.2551
  14.500   1.5028   0.04762   0.04107  -0.0402  0.0525  1.0000  -5.3166   0.0000   0.0000   0.0000   0.2541
  14.750   1.5058   0.05002   0.04357  -0.0396  0.0503  1.0000  -5.4098   0.0000   0.0000   0.0000   0.2531
  15.000   1.5077   0.05260   0.04623  -0.0392  0.0483  1.0000  -5.4999   0.0000   0.0000   0.0000   0.2522
  15.250   1.5057   0.05568   0.04936  -0.0389  0.0466  1.0000  -5.5730   0.0000   0.0000   0.0000   0.2515
  15.500   1.4995   0.05931   0.05303  -0.0386  0.0451  1.0000  -5.6236   0.0000   0.0000   0.0000   0.2509
  15.750   1.5016   0.06208   0.05593  -0.0385  0.0438  1.0000  -5.7107   0.0000   0.0000   0.0000   0.2502
  16.000   1.5015   0.06515   0.05911  -0.0386  0.0425  1.0000  -5.7885   0.0000   0.0000   0.0000   0.2497
  16.250   1.5003   0.06843   0.06248  -0.0387  0.0413  1.0000  -5.8612   0.0000   0.0000   0.0000   0.2492
  16.500   1.4968   0.07204   0.06614  -0.0390  0.0403  1.0000  -5.9253   0.0000   0.0000   0.0000   0.2489
  16.750   1.4902   0.07601   0.07015  -0.0394  0.0393  1.0000  -5.9987   0.0000   0.0000   0.0000   0.2487
  17.000   1.4864   0.07967   0.07390  -0.0397  0.0384  1.0000  -6.0860   0.0000   0.0000   0.0000   0.2484
  17.250   1.4854   0.08314   0.07749  -0.0403  0.0377  1.0000  -6.1906   0.0000   0.0000   0.0000   0.2482
  17.500   1.4835   0.08673   0.08119  -0.0410  0.0369  1.0000  -6.2892   0.0000   0.0000   0.0000   0.2481
  17.750   1.4812   0.09040   0.08496  -0.0417  0.0361  1.0000  -6.3846   0.0000   0.0000   0.0000   0.2481
  18.000   1.4788   0.09411   0.08876  -0.0425  0.0354  1.0000  -6.4791   0.0000   0.0000   0.0000   0.2481
  18.250   1.4763   0.09784   0.09256  -0.0435  0.0348  1.0000  -6.5729   0.0000   0.0000   0.0000   0.2482
  18.500   1.4738   0.10155   0.09634  -0.0444  0.0342  1.0000  -6.6656   0.0000   0.0000   0.0000   0.2483
  18.750   1.4720   0.10500   0.09981  -0.0452  0.0336  1.0000  -6.7629   0.0000   0.0000   0.0000   0.2482
  19.000   1.4718   0.10792   0.10275  -0.0455  0.0328  1.0000  -6.8682   0.0000   0.0000   0.0000   0.2478
  19.250   1.4701   0.11177   0.10674  -0.0470  0.0324  1.0000  -6.9591   0.0000   0.0000   0.0000   0.2482
  19.500   1.4682   0.11563   0.11073  -0.0485  0.0320  1.0000  -7.0471   0.0000   0.0000   0.0000   0.2487
  19.750   1.4663   0.11950   0.11472  -0.0501  0.0316  1.0000  -7.1335   0.0000   0.0000   0.0000   0.2492
  20.000   1.4646   0.12334   0.11867  -0.0518  0.0311  1.0000  -7.2191   0.0000   0.0000   0.0000   0.2498


