xflr5 v6.61

 Calculated polar for: QX0126

 1 1 Reynolds number fixed          Mach number fixed         

 xtrf =   1.000 (top)        1.000 (bottom)
 Mach =   0.000     Re =     0.280 e 6     Ncrit =   9.000

  alpha     CL        CD       CDp       Cm    Top Xtr Bot Xtr   Cpmin    Chinge    XCp    
 ------- -------- --------- --------- -------- ------- ------- -------- --------- ---------
  -9.750  -0.5578   0.03813   0.03369  -0.0976  0.9433  0.0380  -4.7022   0.0000   0.0000   0.0000   0.0611
  -9.500  -0.5545   0.03486   0.02988  -0.0971  0.9355  0.0384  -4.7075   0.0000   0.0000   0.0000   0.0611
  -9.250  -0.5458   0.03129   0.02601  -0.0968  0.9286  0.0392  -4.6619   0.0000   0.0000   0.0000   0.0591
  -9.000  -0.5267   0.03001   0.02466  -0.0963  0.9230  0.0401  -4.5011   0.0000   0.0000   0.0000   0.0536
  -8.750  -0.5069   0.02886   0.02339  -0.0957  0.9182  0.0410  -4.3457   0.0000   0.0000   0.0000   0.0478
  -8.500  -0.4876   0.02717   0.02145  -0.0953  0.9126  0.0418  -4.2252   0.0000   0.0000   0.0000   0.0412
  -8.250  -0.4681   0.02556   0.01953  -0.0945  0.9083  0.0428  -4.1066   0.0000   0.0000   0.0000   0.0347
  -8.000  -0.4461   0.02425   0.01790  -0.0940  0.9030  0.0441  -3.9744   0.0000   0.0000   0.0000   0.0256
  -7.750  -0.4238   0.02320   0.01652  -0.0933  0.8988  0.0451  -3.8487   0.0000   0.0000   0.0000   0.0162
  -7.500  -0.4008   0.02162   0.01490  -0.0930  0.8938  0.0465  -3.7091   0.0000   0.0000   0.0000   0.0042
  -7.250  -0.3767   0.02084   0.01405  -0.0924  0.8897  0.0478  -3.5512   0.0000   0.0000   0.0000  -0.0094
  -7.000  -0.3516   0.02011   0.01320  -0.0921  0.8847  0.0495  -3.3970   0.0000   0.0000   0.0000  -0.0263
  -6.750  -0.3266   0.01948   0.01239  -0.0915  0.8809  0.0515  -3.2544   0.0000   0.0000   0.0000  -0.0449
  -6.500  -0.3015   0.01852   0.01136  -0.0912  0.8760  0.0536  -3.1201   0.0000   0.0000   0.0000  -0.0676
  -6.250  -0.2765   0.01793   0.01076  -0.0907  0.8723  0.0558  -2.9721   0.0000   0.0000   0.0000  -0.0936
  -6.000  -0.2502   0.01740   0.01015  -0.0904  0.8671  0.0587  -2.8375   0.0000   0.0000   0.0000  -0.1278
  -5.750  -0.2252   0.01670   0.00941  -0.0898  0.8637  0.0619  -2.7111   0.0000   0.0000   0.0000  -0.1660
  -5.500  -0.1985   0.01633   0.00903  -0.0897  0.8585  0.0660  -2.5720   0.0000   0.0000   0.0000  -0.2204
  -5.250  -0.1728   0.01580   0.00847  -0.0892  0.8550  0.0703  -2.4420   0.0000   0.0000   0.0000  -0.2860
  -5.000  -0.1459   0.01548   0.00813  -0.0891  0.8498  0.0752  -2.3174   0.0000   0.0000   0.0000  -0.3826
  -4.750  -0.1199   0.01505   0.00770  -0.0886  0.8461  0.0807  -2.1939   0.0000   0.0000   0.0000  -0.5146
  -4.500  -0.0931   0.01471   0.00737  -0.0884  0.8407  0.0876  -2.0705   0.0000   0.0000   0.0000  -0.7306
  -4.250  -0.0666   0.01433   0.00698  -0.0880  0.8371  0.0963  -1.9480   0.0000   0.0000   0.0000  -1.1118
  -4.000  -0.0397   0.01401   0.00672  -0.0879  0.8317  0.1074  -1.8266   0.0000   0.0000   0.0000  -2.0274
  -3.750  -0.0127   0.01370   0.00642  -0.0876  0.8281  0.1217  -1.7138   0.0000   0.0000   0.0000  -6.8111
  -3.500   0.0144   0.01342   0.00619  -0.0875  0.8226  0.1386  -1.6021   0.0000   0.0000   0.0000   6.4788
  -3.250   0.0413   0.01306   0.00591  -0.0872  0.8189  0.1582  -1.4902   0.0000   0.0000   0.0000   2.4066
  -3.000   0.0686   0.01282   0.00577  -0.0872  0.8133  0.1822  -1.3792   0.0000   0.0000   0.0000   1.5467
  -2.750   0.0959   0.01251   0.00554  -0.0869  0.8096  0.2116  -1.2693   0.0000   0.0000   0.0000   1.1729
  -2.500   0.1231   0.01225   0.00542  -0.0869  0.8036  0.2481  -1.1615   0.0000   0.0000   0.0000   0.9674
  -2.250   0.1502   0.01193   0.00526  -0.0867  0.7990  0.2928  -1.0608   0.0000   0.0000   0.0000   0.8354
  -2.000   0.1772   0.01161   0.00514  -0.0866  0.7937  0.3512  -0.9639   0.0000   0.0000   0.0000   0.7444
  -1.750   0.2038   0.01124   0.00505  -0.0864  0.7884  0.4267  -0.8697   0.0000   0.0000   0.0000   0.6781
  -1.500   0.2298   0.01083   0.00497  -0.0859  0.7837  0.5239  -0.7779   0.0000   0.0000   0.0000   0.6268
  -1.250   0.2553   0.01052   0.00499  -0.0853  0.7778  0.6167  -0.7032   0.0000   0.0000   0.0000   0.5860
  -1.000   0.2808   0.01025   0.00492  -0.0843  0.7734  0.6959  -0.6335   0.0000   0.0000   0.0000   0.5513
  -0.750   0.3058   0.01010   0.00494  -0.0832  0.7668  0.7554  -0.6517   0.0000   0.0000   0.0000   0.5227
  -0.500   0.3307   0.00997   0.00492  -0.0821  0.7608  0.8015  -0.6715   0.0000   0.0000   0.0000   0.4981
  -0.250   0.3556   0.00984   0.00482  -0.0808  0.7558  0.8424  -0.6924   0.0000   0.0000   0.0000   0.4765
   0.000   0.3792   0.00975   0.00480  -0.0793  0.7488  0.8807  -0.7153   0.0000   0.0000   0.0000   0.4580
   0.250   0.4044   0.00967   0.00475  -0.0781  0.7424  0.9182  -0.7395   0.0000   0.0000   0.0000   0.4415
   0.500   0.4376   0.00957   0.00461  -0.0786  0.7368  0.9531  -0.7691   0.0000   0.0000   0.0000   0.4275
   0.750   0.4807   0.00949   0.00447  -0.0814  0.7298  0.9803  -0.8048   0.0000   0.0000   0.0000   0.4169
   1.000   0.5287   0.00940   0.00433  -0.0855  0.7218  1.0000  -0.8445   0.0000   0.0000   0.0000   0.4089
   1.250   0.5530   0.00938   0.00424  -0.0849  0.7136  1.0000  -0.8708   0.0000   0.0000   0.0000   0.4004
   1.500   0.5784   0.00938   0.00417  -0.0844  0.7050  1.0000  -0.8981   0.0000   0.0000   0.0000   0.3925
   1.750   0.6046   0.00938   0.00410  -0.0840  0.6961  1.0000  -0.9312   0.0000   0.0000   0.0000   0.3852
   2.000   0.6312   0.00940   0.00406  -0.0837  0.6871  1.0000  -0.9657   0.0000   0.0000   0.0000   0.3786
   2.250   0.6582   0.00944   0.00405  -0.0834  0.6780  1.0000  -1.0012   0.0000   0.0000   0.0000   0.3725
   2.500   0.6853   0.00949   0.00404  -0.0832  0.6686  1.0000  -1.0379   0.0000   0.0000   0.0000   0.3669
   2.750   0.7125   0.00955   0.00404  -0.0830  0.6584  1.0000  -1.0755   0.0000   0.0000   0.0000   0.3617
   3.000   0.7396   0.00962   0.00405  -0.0827  0.6478  1.0000  -1.1144   0.0000   0.0000   0.0000   0.3568
   3.250   0.7664   0.00970   0.00410  -0.0825  0.6350  1.0000  -1.1542   0.0000   0.0000   0.0000   0.3523
   3.500   0.7932   0.00979   0.00413  -0.0822  0.6222  1.0000  -1.1995   0.0000   0.0000   0.0000   0.3480
   3.750   0.8199   0.00990   0.00419  -0.0819  0.6091  1.0000  -1.2453   0.0000   0.0000   0.0000   0.3440
   4.000   0.8466   0.01004   0.00428  -0.0816  0.5960  1.0000  -1.2915   0.0000   0.0000   0.0000   0.3402
   4.250   0.8731   0.01020   0.00438  -0.0814  0.5827  1.0000  -1.3420   0.0000   0.0000   0.0000   0.3367
   4.500   0.8994   0.01037   0.00451  -0.0810  0.5683  1.0000  -1.3946   0.0000   0.0000   0.0000   0.3333
   4.750   0.9254   0.01056   0.00466  -0.0807  0.5536  1.0000  -1.4499   0.0000   0.0000   0.0000   0.3301
   5.000   0.9511   0.01079   0.00481  -0.0803  0.5386  1.0000  -1.5104   0.0000   0.0000   0.0000   0.3271
   5.250   0.9763   0.01102   0.00500  -0.0798  0.5218  1.0000  -1.5724   0.0000   0.0000   0.0000   0.3241
   5.500   1.0013   0.01128   0.00520  -0.0794  0.5047  1.0000  -1.6381   0.0000   0.0000   0.0000   0.3213
   5.750   1.0260   0.01156   0.00543  -0.0789  0.4878  1.0000  -1.7049   0.0000   0.0000   0.0000   0.3186
   6.000   1.0504   0.01186   0.00568  -0.0783  0.4705  1.0000  -1.7730   0.0000   0.0000   0.0000   0.3160
   6.250   1.0742   0.01219   0.00595  -0.0777  0.4524  1.0000  -1.8494   0.0000   0.0000   0.0000   0.3135
   6.500   1.0975   0.01254   0.00624  -0.0770  0.4339  1.0000  -1.9352   0.0000   0.0000   0.0000   0.3110
   6.750   1.1204   0.01292   0.00657  -0.0763  0.4152  1.0000  -2.0345   0.0000   0.0000   0.0000   0.3086
   7.000   1.1426   0.01334   0.00692  -0.0755  0.3960  1.0000  -2.1340   0.0000   0.0000   0.0000   0.3062
   7.250   1.1641   0.01379   0.00730  -0.0746  0.3767  1.0000  -2.2335   0.0000   0.0000   0.0000   0.3039
   7.500   1.1850   0.01426   0.00771  -0.0737  0.3575  1.0000  -2.3333   0.0000   0.0000   0.0000   0.3016
   7.750   1.2052   0.01477   0.00815  -0.0727  0.3388  1.0000  -2.4395   0.0000   0.0000   0.0000   0.2994
   8.000   1.2245   0.01532   0.00863  -0.0715  0.3199  1.0000  -2.5556   0.0000   0.0000   0.0000   0.2972
   8.250   1.2431   0.01590   0.00914  -0.0703  0.3012  1.0000  -2.6717   0.0000   0.0000   0.0000   0.2950
   8.500   1.2607   0.01651   0.00969  -0.0690  0.2833  1.0000  -2.7867   0.0000   0.0000   0.0000   0.2928
   8.750   1.2771   0.01715   0.01028  -0.0675  0.2662  1.0000  -2.9003   0.0000   0.0000   0.0000   0.2905
   9.000   1.2918   0.01780   0.01089  -0.0657  0.2506  1.0000  -3.0101   0.0000   0.0000   0.0000   0.2882
   9.250   1.3057   0.01854   0.01158  -0.0640  0.2359  1.0000  -3.1192   0.0000   0.0000   0.0000   0.2859
   9.500   1.3189   0.01936   0.01234  -0.0623  0.2215  1.0000  -3.2273   0.0000   0.0000   0.0000   0.2838
   9.750   1.3325   0.02018   0.01314  -0.0608  0.2072  1.0000  -3.3376   0.0000   0.0000   0.0000   0.2817
  10.000   1.3448   0.02113   0.01404  -0.0592  0.1940  1.0000  -3.4449   0.0000   0.0000   0.0000   0.2797
  10.250   1.3579   0.02205   0.01495  -0.0578  0.1812  1.0000  -3.5552   0.0000   0.0000   0.0000   0.2779
  10.500   1.3696   0.02309   0.01597  -0.0563  0.1696  1.0000  -3.6625   0.0000   0.0000   0.0000   0.2760
  10.750   1.3803   0.02423   0.01707  -0.0548  0.1591  1.0000  -3.7672   0.0000   0.0000   0.0000   0.2742
  11.000   1.3910   0.02540   0.01823  -0.0534  0.1490  1.0000  -3.8724   0.0000   0.0000   0.0000   0.2724
  11.250   1.4017   0.02659   0.01943  -0.0520  0.1392  1.0000  -3.9780   0.0000   0.0000   0.0000   0.2707
  11.500   1.4117   0.02786   0.02071  -0.0507  0.1300  1.0000  -4.0820   0.0000   0.0000   0.0000   0.2691
  11.750   1.4209   0.02922   0.02207  -0.0494  0.1214  1.0000  -4.1835   0.0000   0.0000   0.0000   0.2675
  12.000   1.4289   0.03068   0.02354  -0.0481  0.1135  1.0000  -4.2818   0.0000   0.0000   0.0000   0.2659
  12.250   1.4356   0.03230   0.02514  -0.0467  0.1063  1.0000  -4.3754   0.0000   0.0000   0.0000   0.2643
  12.500   1.4418   0.03398   0.02684  -0.0455  0.0995  1.0000  -4.4673   0.0000   0.0000   0.0000   0.2629
  12.750   1.4483   0.03568   0.02858  -0.0443  0.0930  1.0000  -4.5629   0.0000   0.0000   0.0000   0.2614
  13.000   1.4529   0.03756   0.03051  -0.0431  0.0873  1.0000  -4.6535   0.0000   0.0000   0.0000   0.2600
  13.250   1.4542   0.03979   0.03272  -0.0419  0.0825  1.0000  -4.7326   0.0000   0.0000   0.0000   0.2587
  13.500   1.4598   0.04168   0.03470  -0.0409  0.0773  1.0000  -4.8256   0.0000   0.0000   0.0000   0.2574
  13.750   1.4603   0.04408   0.03711  -0.0399  0.0734  1.0000  -4.8996   0.0000   0.0000   0.0000   0.2562
  14.000   1.4635   0.04631   0.03941  -0.0391  0.0692  1.0000  -4.9828   0.0000   0.0000   0.0000   0.2551
  14.250   1.4624   0.04903   0.04215  -0.0383  0.0661  1.0000  -5.0487   0.0000   0.0000   0.0000   0.2540
  14.500   1.4657   0.05140   0.04463  -0.0378  0.0627  1.0000  -5.1298   0.0000   0.0000   0.0000   0.2531
  14.750   1.4640   0.05434   0.04758  -0.0373  0.0601  1.0000  -5.1943   0.0000   0.0000   0.0000   0.2522
  15.000   1.4646   0.05711   0.05044  -0.0368  0.0577  1.0000  -5.2716   0.0000   0.0000   0.0000   0.2514
  15.250   1.4659   0.05987   0.05329  -0.0366  0.0554  1.0000  -5.3533   0.0000   0.0000   0.0000   0.2506
  15.500   1.4649   0.06293   0.05640  -0.0364  0.0535  1.0000  -5.4263   0.0000   0.0000   0.0000   0.2500
  15.750   1.4621   0.06612   0.05959  -0.0361  0.0519  1.0000  -5.4881   0.0000   0.0000   0.0000   0.2493
  16.000   1.4635   0.06905   0.06267  -0.0362  0.0503  1.0000  -5.5654   0.0000   0.0000   0.0000   0.2487
  16.250   1.4639   0.07210   0.06583  -0.0363  0.0487  1.0000  -5.6397   0.0000   0.0000   0.0000   0.2482
  16.500   1.4637   0.07525   0.06904  -0.0365  0.0474  1.0000  -5.7127   0.0000   0.0000   0.0000   0.2478
  16.750   1.4630   0.07838   0.07220  -0.0366  0.0462  1.0000  -5.7837   0.0000   0.0000   0.0000   0.2473
  17.000   1.4637   0.08114   0.07496  -0.0362  0.0450  1.0000  -5.8565   0.0000   0.0000   0.0000   0.2466
  17.250   1.4632   0.08453   0.07851  -0.0368  0.0440  1.0000  -5.9460   0.0000   0.0000   0.0000   0.2464
  17.500   1.4627   0.08789   0.08200  -0.0374  0.0430  1.0000  -6.0480   0.0000   0.0000   0.0000   0.2462
  17.750   1.4624   0.09123   0.08544  -0.0380  0.0420  1.0000  -6.1520   0.0000   0.0000   0.0000   0.2460
  18.000   1.4624   0.09451   0.08880  -0.0387  0.0411  1.0000  -6.2590   0.0000   0.0000   0.0000   0.2459
  18.250   1.4634   0.09760   0.09194  -0.0393  0.0403  1.0000  -6.3729   0.0000   0.0000   0.0000   0.2457
  18.500   1.4665   0.10014   0.09449  -0.0394  0.0395  1.0000  -6.5026   0.0000   0.0000   0.0000   0.2451
  18.750   1.4698   0.10250   0.09690  -0.0392  0.0387  1.0000  -6.6271   0.0000   0.0000   0.0000   0.2443
  19.000   1.4668   0.10648   0.10105  -0.0406  0.0382  1.0000  -6.7048   0.0000   0.0000   0.0000   0.2448
  19.250   1.4638   0.11048   0.10521  -0.0421  0.0377  1.0000  -6.7805   0.0000   0.0000   0.0000   0.2452
  19.500   1.4605   0.11456   0.10945  -0.0438  0.0371  1.0000  -6.8519   0.0000   0.0000   0.0000   0.2458
  19.750   1.4570   0.11871   0.11374  -0.0457  0.0365  1.0000  -6.9197   0.0000   0.0000   0.0000   0.2465
  20.000   1.4538   0.12284   0.11800  -0.0477  0.0360  1.0000  -6.9877   0.0000   0.0000   0.0000   0.2473


