xflr5 v6.61

 Calculated polar for: QX0126

 1 1 Reynolds number fixed          Mach number fixed         

 xtrf =   1.000 (top)        1.000 (bottom)
 Mach =   0.000     Re =     0.820 e 6     Ncrit =   9.000

  alpha     CL        CD       CDp       Cm    Top Xtr Bot Xtr   Cpmin    Chinge    XCp    
 ------- -------- --------- --------- -------- ------- ------- -------- --------- ---------
 -10.000  -0.7155   0.01825   0.01291  -0.0803  0.8549  0.0228  -6.3424   0.0000   0.0000   0.0000   0.1246
  -9.750  -0.6933   0.01699   0.01155  -0.0801  0.8510  0.0235  -6.1481   0.0000   0.0000   0.0000   0.1215
  -9.500  -0.6677   0.01645   0.01097  -0.0800  0.8476  0.0242  -5.9121   0.0000   0.0000   0.0000   0.1173
  -9.250  -0.6413   0.01605   0.01053  -0.0800  0.8446  0.0248  -5.6741   0.0000   0.0000   0.0000   0.1126
  -9.000  -0.6146   0.01561   0.01004  -0.0800  0.8410  0.0254  -5.4431   0.0000   0.0000   0.0000   0.1073
  -8.750  -0.5881   0.01517   0.00952  -0.0799  0.8379  0.0260  -5.2184   0.0000   0.0000   0.0000   0.1016
  -8.500  -0.5610   0.01479   0.00907  -0.0799  0.8347  0.0267  -4.9942   0.0000   0.0000   0.0000   0.0952
  -8.250  -0.5335   0.01449   0.00870  -0.0799  0.8311  0.0272  -4.7707   0.0000   0.0000   0.0000   0.0879
  -8.000  -0.5083   0.01369   0.00782  -0.0797  0.8279  0.0282  -4.5862   0.0000   0.0000   0.0000   0.0808
  -7.750  -0.4812   0.01324   0.00736  -0.0797  0.8242  0.0290  -4.3823   0.0000   0.0000   0.0000   0.0719
  -7.500  -0.4537   0.01291   0.00699  -0.0797  0.8208  0.0299  -4.1783   0.0000   0.0000   0.0000   0.0618
  -7.250  -0.4260   0.01261   0.00664  -0.0797  0.8177  0.0309  -3.9777   0.0000   0.0000   0.0000   0.0503
  -7.000  -0.3978   0.01234   0.00633  -0.0797  0.8138  0.0319  -3.7821   0.0000   0.0000   0.0000   0.0368
  -6.750  -0.3704   0.01194   0.00586  -0.0797  0.8107  0.0330  -3.6065   0.0000   0.0000   0.0000   0.0219
  -6.500  -0.3430   0.01149   0.00540  -0.0797  0.8072  0.0347  -3.4320   0.0000   0.0000   0.0000   0.0043
  -6.250  -0.3148   0.01122   0.00511  -0.0798  0.8037  0.0364  -3.2573   0.0000   0.0000   0.0000  -0.0170
  -5.750  -0.2586   0.01060   0.00443  -0.0799  0.7965  0.0410  -2.9368   0.0000   0.0000   0.0000  -0.0735
  -5.500  -0.2302   0.01039   0.00419  -0.0799  0.7929  0.0437  -2.7753   0.0000   0.0000   0.0000  -0.1126
  -5.250  -0.2018   0.01012   0.00391  -0.0800  0.7893  0.0467  -2.6252   0.0000   0.0000   0.0000  -0.1629
  -5.000  -0.1733   0.00990   0.00369  -0.0801  0.7855  0.0501  -2.4784   0.0000   0.0000   0.0000  -0.2302
  -4.750  -0.1447   0.00971   0.00347  -0.0801  0.7821  0.0534  -2.3350   0.0000   0.0000   0.0000  -0.3241
  -4.500  -0.1160   0.00948   0.00326  -0.0803  0.7777  0.0579  -2.1928   0.0000   0.0000   0.0000  -0.4653
  -4.250  -0.0874   0.00928   0.00306  -0.0803  0.7743  0.0633  -2.0538   0.0000   0.0000   0.0000  -0.6980
  -4.000  -0.0586   0.00908   0.00288  -0.0805  0.7700  0.0706  -1.9166   0.0000   0.0000   0.0000  -1.1620
  -3.750  -0.0300   0.00890   0.00272  -0.0806  0.7658  0.0805  -1.7905   0.0000   0.0000   0.0000  -2.5105
  -3.500  -0.0011   0.00873   0.00259  -0.0807  0.7612  0.0917  -1.6662   0.0000   0.0000   0.0000  -73.1385
  -3.250   0.0277   0.00857   0.00244  -0.0808  0.7568  0.1028  -1.5442   0.0000   0.0000   0.0000   3.2347
  -3.000   0.0565   0.00839   0.00233  -0.0810  0.7522  0.1178  -1.4242   0.0000   0.0000   0.0000   1.7124
  -2.750   0.0853   0.00823   0.00221  -0.0811  0.7479  0.1350  -1.3068   0.0000   0.0000   0.0000   1.2177
  -2.500   0.1141   0.00806   0.00211  -0.0813  0.7430  0.1535  -1.1921   0.0000   0.0000   0.0000   0.9730
  -2.250   0.1429   0.00790   0.00201  -0.0814  0.7382  0.1785  -1.0802   0.0000   0.0000   0.0000   0.8273
  -2.000   0.1717   0.00773   0.00193  -0.0816  0.7324  0.2052  -0.9781   0.0000   0.0000   0.0000   0.7303
  -1.750   0.2005   0.00758   0.00186  -0.0817  0.7274  0.2340  -0.8786   0.0000   0.0000   0.0000   0.6612
  -1.500   0.2293   0.00743   0.00179  -0.0819  0.7216  0.2661  -0.7813   0.0000   0.0000   0.0000   0.6095
  -1.250   0.2581   0.00725   0.00174  -0.0821  0.7158  0.3056  -0.7036   0.0000   0.0000   0.0000   0.5694
  -1.000   0.2867   0.00709   0.00169  -0.0822  0.7102  0.3518  -0.6425   0.0000   0.0000   0.0000   0.5374
  -0.750   0.3151   0.00684   0.00165  -0.0824  0.7037  0.4187  -0.6626   0.0000   0.0000   0.0000   0.5114
  -0.500   0.3432   0.00655   0.00164  -0.0825  0.6971  0.5106  -0.6831   0.0000   0.0000   0.0000   0.4898
  -0.250   0.3713   0.00636   0.00163  -0.0826  0.6900  0.5824  -0.7056   0.0000   0.0000   0.0000   0.4712
   0.000   0.3992   0.00619   0.00165  -0.0825  0.6823  0.6512  -0.7312   0.0000   0.0000   0.0000   0.4551
   0.250   0.4271   0.00609   0.00167  -0.0824  0.6738  0.7045  -0.7571   0.0000   0.0000   0.0000   0.4409
   0.500   0.4552   0.00603   0.00169  -0.0823  0.6648  0.7424  -0.7838   0.0000   0.0000   0.0000   0.4284
   0.750   0.4831   0.00600   0.00171  -0.0821  0.6560  0.7756  -0.8106   0.0000   0.0000   0.0000   0.4173
   1.000   0.5107   0.00597   0.00175  -0.0819  0.6476  0.8101  -0.8375   0.0000   0.0000   0.0000   0.4074
   1.250   0.5376   0.00594   0.00180  -0.0815  0.6386  0.8458  -0.8656   0.0000   0.0000   0.0000   0.3983
   1.500   0.5640   0.00592   0.00184  -0.0809  0.6285  0.8782  -0.8936   0.0000   0.0000   0.0000   0.3899
   1.750   0.5894   0.00592   0.00189  -0.0802  0.6174  0.9094  -0.9247   0.0000   0.0000   0.0000   0.3821
   2.000   0.6148   0.00595   0.00192  -0.0793  0.6053  0.9430  -0.9585   0.0000   0.0000   0.0000   0.3749
   2.250   0.6476   0.00601   0.00195  -0.0802  0.5921  0.9756  -0.9984   0.0000   0.0000   0.0000   0.3694
   2.500   0.6865   0.00610   0.00198  -0.0826  0.5772  0.9995  -1.0441   0.0000   0.0000   0.0000   0.3656
   2.750   0.7141   0.00623   0.00204  -0.0826  0.5643  1.0000  -1.0821   0.0000   0.0000   0.0000   0.3607
   3.000   0.7416   0.00637   0.00212  -0.0825  0.5510  1.0000  -1.1213   0.0000   0.0000   0.0000   0.3561
   3.250   0.7690   0.00652   0.00220  -0.0825  0.5378  1.0000  -1.1625   0.0000   0.0000   0.0000   0.3517
   3.500   0.7964   0.00668   0.00230  -0.0824  0.5237  1.0000  -1.2087   0.0000   0.0000   0.0000   0.3477
   3.750   0.8237   0.00686   0.00241  -0.0823  0.5094  1.0000  -1.2551   0.0000   0.0000   0.0000   0.3439
   4.000   0.8506   0.00705   0.00253  -0.0822  0.4932  1.0000  -1.3016   0.0000   0.0000   0.0000   0.3404
   4.250   0.8777   0.00725   0.00266  -0.0821  0.4765  1.0000  -1.3524   0.0000   0.0000   0.0000   0.3370
   4.500   0.9046   0.00746   0.00280  -0.0820  0.4611  1.0000  -1.4062   0.0000   0.0000   0.0000   0.3338
   4.750   0.9313   0.00768   0.00296  -0.0819  0.4449  1.0000  -1.4629   0.0000   0.0000   0.0000   0.3308
   5.000   0.9577   0.00792   0.00312  -0.0817  0.4280  1.0000  -1.5258   0.0000   0.0000   0.0000   0.3279
   5.250   0.9839   0.00818   0.00330  -0.0815  0.4106  1.0000  -1.5913   0.0000   0.0000   0.0000   0.3252
   6.000   1.0611   0.00905   0.00393  -0.0808  0.3556  1.0000  -1.7986   0.0000   0.0000   0.0000   0.3175
   6.250   1.0863   0.00937   0.00417  -0.0805  0.3376  1.0000  -1.8801   0.0000   0.0000   0.0000   0.3152
   6.500   1.1111   0.00971   0.00443  -0.0801  0.3194  1.0000  -1.9828   0.0000   0.0000   0.0000   0.3129
   6.750   1.1355   0.01007   0.00470  -0.0797  0.2996  1.0000  -2.0862   0.0000   0.0000   0.0000   0.3107
   7.000   1.1597   0.01045   0.00499  -0.0793  0.2810  1.0000  -2.1907   0.0000   0.0000   0.0000   0.3085
   7.250   1.1836   0.01083   0.00530  -0.0788  0.2647  1.0000  -2.2962   0.0000   0.0000   0.0000   0.3064
   7.500   1.2068   0.01125   0.00563  -0.0783  0.2472  1.0000  -2.4085   0.0000   0.0000   0.0000   0.3043
   7.750   1.2294   0.01170   0.00598  -0.0776  0.2290  1.0000  -2.5338   0.0000   0.0000   0.0000   0.3022
   8.000   1.2517   0.01216   0.00636  -0.0769  0.2120  1.0000  -2.6603   0.0000   0.0000   0.0000   0.3002
   8.250   1.2737   0.01262   0.00673  -0.0762  0.1953  1.0000  -2.7882   0.0000   0.0000   0.0000   0.2983
   8.500   1.2953   0.01308   0.00713  -0.0755  0.1809  1.0000  -2.9169   0.0000   0.0000   0.0000   0.2963
   8.750   1.3164   0.01356   0.00755  -0.0746  0.1685  1.0000  -3.0461   0.0000   0.0000   0.0000   0.2944
   9.000   1.3369   0.01404   0.00798  -0.0737  0.1575  1.0000  -3.1757   0.0000   0.0000   0.0000   0.2924
   9.250   1.3570   0.01453   0.00843  -0.0727  0.1474  1.0000  -3.3060   0.0000   0.0000   0.0000   0.2905
   9.500   1.3751   0.01502   0.00889  -0.0714  0.1377  1.0000  -3.4324   0.0000   0.0000   0.0000   0.2885
   9.750   1.3924   0.01557   0.00941  -0.0700  0.1281  1.0000  -3.5579   0.0000   0.0000   0.0000   0.2865
  10.000   1.4089   0.01617   0.00997  -0.0686  0.1187  1.0000  -3.6827   0.0000   0.0000   0.0000   0.2845
  10.250   1.4249   0.01683   0.01060  -0.0673  0.1098  1.0000  -3.8070   0.0000   0.0000   0.0000   0.2826
  10.500   1.4404   0.01754   0.01128  -0.0659  0.1014  1.0000  -3.9311   0.0000   0.0000   0.0000   0.2807
  10.750   1.4555   0.01830   0.01201  -0.0646  0.0939  1.0000  -4.0551   0.0000   0.0000   0.0000   0.2789
  11.000   1.4704   0.01908   0.01278  -0.0633  0.0873  1.0000  -4.1798   0.0000   0.0000   0.0000   0.2772
  11.250   1.4846   0.01993   0.01362  -0.0620  0.0809  1.0000  -4.3030   0.0000   0.0000   0.0000   0.2754
  11.750   1.5120   0.02174   0.01542  -0.0595  0.0696  1.0000  -4.5494   0.0000   0.0000   0.0000   0.2721
  12.000   1.5248   0.02274   0.01642  -0.0582  0.0646  1.0000  -4.6707   0.0000   0.0000   0.0000   0.2705
  12.500   1.5484   0.02492   0.01861  -0.0556  0.0554  1.0000  -4.9165   0.0000   0.0000   0.0000   0.2674
  12.750   1.5584   0.02616   0.01987  -0.0543  0.0514  1.0000  -5.0364   0.0000   0.0000   0.0000   0.2658
  13.000   1.5690   0.02739   0.02111  -0.0531  0.0478  1.0000  -5.1596   0.0000   0.0000   0.0000   0.2643
  13.250   1.5775   0.02879   0.02254  -0.0518  0.0446  1.0000  -5.2746   0.0000   0.0000   0.0000   0.2628
  13.500   1.5871   0.03013   0.02391  -0.0506  0.0419  1.0000  -5.3950   0.0000   0.0000   0.0000   0.2614
  13.750   1.5926   0.03183   0.02562  -0.0493  0.0391  1.0000  -5.4993   0.0000   0.0000   0.0000   0.2599
  14.000   1.6013   0.03330   0.02715  -0.0482  0.0374  1.0000  -5.6238   0.0000   0.0000   0.0000   0.2586
  14.250   1.6080   0.03496   0.02886  -0.0471  0.0357  1.0000  -5.7449   0.0000   0.0000   0.0000   0.2573
  14.500   1.6113   0.03696   0.03089  -0.0459  0.0340  1.0000  -5.8520   0.0000   0.0000   0.0000   0.2559
  14.750   1.6139   0.03907   0.03306  -0.0448  0.0326  1.0000  -5.9763   0.0000   0.0000   0.0000   0.2547
  15.000   1.6208   0.04084   0.03491  -0.0440  0.0316  1.0000  -6.1454   0.0000   0.0000   0.0000   0.2535
  15.250   1.6258   0.04286   0.03700  -0.0433  0.0306  1.0000  -6.3047   0.0000   0.0000   0.0000   0.2524
  15.500   1.6287   0.04515   0.03935  -0.0426  0.0296  1.0000  -6.4529   0.0000   0.0000   0.0000   0.2514
  15.750   1.6288   0.04780   0.04206  -0.0419  0.0287  1.0000  -6.5851   0.0000   0.0000   0.0000   0.2504
  16.000   1.6241   0.05108   0.04541  -0.0414  0.0277  1.0000  -6.6863   0.0000   0.0000   0.0000   0.2496
  16.250   1.6253   0.05379   0.04821  -0.0411  0.0272  1.0000  -6.8241   0.0000   0.0000   0.0000   0.2488
  16.500   1.6273   0.05645   0.05096  -0.0409  0.0267  1.0000  -6.9689   0.0000   0.0000   0.0000   0.2481
  16.750   1.6279   0.05935   0.05396  -0.0408  0.0262  1.0000  -7.1043   0.0000   0.0000   0.0000   0.2474
  17.000   1.6272   0.06246   0.05715  -0.0409  0.0257  1.0000  -7.2324   0.0000   0.0000   0.0000   0.2469
  17.250   1.6253   0.06577   0.06055  -0.0410  0.0253  1.0000  -7.3530   0.0000   0.0000   0.0000   0.2464
  17.500   1.6217   0.06937   0.06423  -0.0413  0.0248  1.0000  -7.4624   0.0000   0.0000   0.0000   0.2460
  17.750   1.6163   0.07327   0.06822  -0.0418  0.0243  1.0000  -7.5582   0.0000   0.0000   0.0000   0.2458
  18.000   1.6084   0.07758   0.07262  -0.0425  0.0239  1.0000  -7.6356   0.0000   0.0000   0.0000   0.2457
  18.250   1.5976   0.08238   0.07750  -0.0434  0.0235  1.0000  -7.6896   0.0000   0.0000   0.0000   0.2458
  18.500   1.5838   0.08769   0.08292  -0.0446  0.0231  1.0000  -7.7188   0.0000   0.0000   0.0000   0.2462
  18.750   1.5710   0.09293   0.08827  -0.0459  0.0228  1.0000  -7.7515   0.0000   0.0000   0.0000   0.2467
  19.000   1.5663   0.09707   0.09251  -0.0471  0.0226  1.0000  -7.8433   0.0000   0.0000   0.0000   0.2468
  19.250   1.5606   0.10140   0.09694  -0.0484  0.0224  1.0000  -7.9251   0.0000   0.0000   0.0000   0.2471
  19.500   1.5539   0.10590   0.10155  -0.0499  0.0222  1.0000  -7.9971   0.0000   0.0000   0.0000   0.2476
  19.750   1.5468   0.11053   0.10628  -0.0515  0.0219  1.0000  -8.0630   0.0000   0.0000   0.0000   0.2482
  20.000   1.5398   0.11519   0.11103  -0.0533  0.0217  1.0000  -8.1263   0.0000   0.0000   0.0000   0.2488


