xflr5 v6.61

 Calculated polar for: QX0126

 1 1 Reynolds number fixed          Mach number fixed         

 xtrf =   1.000 (top)        1.000 (bottom)
 Mach =   0.000     Re =     0.140 e 6     Ncrit =   9.000

  alpha     CL        CD       CDp       Cm    Top Xtr Bot Xtr   Cpmin    Chinge    XCp    
 ------- -------- --------- --------- -------- ------- ------- -------- --------- ---------
  -9.500  -0.3376   0.10900   0.10515  -0.0340  1.0000  0.0996  -1.5981   0.0000   0.0000   0.0000   0.1362
  -8.500  -0.3685   0.09242   0.08856  -0.0416  0.9925  0.1091  -1.7849   0.0000   0.0000   0.0000   0.1247
  -8.000  -0.4579   0.05486   0.05009  -0.0831  0.9649  0.0765  -3.0379   0.0000   0.0000   0.0000   0.0572
  -7.750  -0.4304   0.05114   0.04637  -0.0856  0.9620  0.0755  -2.9349   0.0000   0.0000   0.0000   0.0394
  -7.500  -0.4181   0.04636   0.04134  -0.0874  0.9556  0.0733  -2.9379   0.0000   0.0000   0.0000   0.0292
  -7.250  -0.4229   0.03626   0.02970  -0.0891  0.9476  0.0687  -3.2496   0.0000   0.0000   0.0000   0.0273
  -7.000  -0.3856   0.03503   0.02860  -0.0918  0.9451  0.0713  -3.0522   0.0000   0.0000   0.0000  -0.0005
  -6.750  -0.3653   0.03274   0.02590  -0.0918  0.9390  0.0729  -2.9881   0.0000   0.0000   0.0000  -0.0140
  -6.500  -0.3306   0.02993   0.02249  -0.0941  0.9361  0.0748  -2.9062   0.0000   0.0000   0.0000  -0.0482
  -6.250  -0.3075   0.02821   0.02031  -0.0938  0.9301  0.0770  -2.8358   0.0000   0.0000   0.0000  -0.0692
  -6.000  -0.2700   0.02710   0.01922  -0.0961  0.9273  0.0812  -2.6716   0.0000   0.0000   0.0000  -0.1211
  -5.750  -0.2452   0.02606   0.01775  -0.0956  0.9212  0.0849  -2.5859   0.0000   0.0000   0.0000  -0.1560
  -5.500  -0.2089   0.02486   0.01660  -0.0975  0.9182  0.0896  -2.4471   0.0000   0.0000   0.0000  -0.2345
  -5.000  -0.1482   0.02336   0.01480  -0.0985  0.9089  0.1027  -2.2153   0.0000   0.0000   0.0000  -0.4372
  -4.750  -0.1245   0.02284   0.01437  -0.0980  0.9024  0.1096  -2.1096   0.0000   0.0000   0.0000  -0.5625
  -4.500  -0.0944   0.02229   0.01381  -0.0984  0.8977  0.1191  -1.9944   0.0000   0.0000   0.0000  -0.8237
  -4.250  -0.0655   0.02176   0.01327  -0.0985  0.8924  0.1303  -1.8821   0.0000   0.0000   0.0000  -1.2964
  -4.000  -0.0401   0.02128   0.01291  -0.0982  0.8862  0.1425  -1.7752   0.0000   0.0000   0.0000  -2.2617
  -3.750  -0.0084   0.02072   0.01244  -0.0987  0.8822  0.1606  -1.6641   0.0000   0.0000   0.0000  -11.7510
  -3.500   0.0153   0.02043   0.01223  -0.0981  0.8754  0.1797  -1.5691   0.0000   0.0000   0.0000   6.8214
  -3.250   0.0417   0.02008   0.01199  -0.0978  0.8696  0.2049  -1.4671   0.0000   0.0000   0.0000   2.6478
  -3.000   0.0707   0.01965   0.01171  -0.0979  0.8647  0.2378  -1.3589   0.0000   0.0000   0.0000   1.6624
  -2.750   0.0945   0.01938   0.01164  -0.0973  0.8578  0.2777  -1.2615   0.0000   0.0000   0.0000   1.2984
  -2.500   0.1204   0.01899   0.01152  -0.0969  0.8520  0.3330  -1.1608   0.0000   0.0000   0.0000   1.0684
  -2.250   0.1469   0.01847   0.01137  -0.0965  0.8467  0.4097  -1.0659   0.0000   0.0000   0.0000   0.9166
  -2.000   0.1688   0.01810   0.01146  -0.0953  0.8396  0.5125  -0.9799   0.0000   0.0000   0.0000   0.8220
  -1.750   0.1905   0.01778   0.01160  -0.0935  0.8333  0.6300  -0.8942   0.0000   0.0000   0.0000   0.7463
  -1.500   0.2134   0.01751   0.01161  -0.0912  0.8283  0.7266  -0.8068   0.0000   0.0000   0.0000   0.6816
  -1.250   0.2323   0.01753   0.01177  -0.0885  0.8209  0.7949  -0.7343   0.0000   0.0000   0.0000   0.6341
  -1.000   0.2518   0.01755   0.01186  -0.0857  0.8140  0.8518  -0.6721   0.0000   0.0000   0.0000   0.5927
  -0.750   0.2790   0.01735   0.01166  -0.0839  0.8099  0.9044  -0.6222   0.0000   0.0000   0.0000   0.5521
  -0.500   0.3189   0.01733   0.01161  -0.0854  0.8031  0.9539  -0.6503   0.0000   0.0000   0.0000   0.5184
  -0.250   0.3814   0.01705   0.01120  -0.0915  0.7992  0.9887  -0.6935   0.0000   0.0000   0.0000   0.4895
   0.000   0.4239   0.01688   0.01092  -0.0944  0.7929  1.0000  -0.7272   0.0000   0.0000   0.0000   0.4718
   0.250   0.4416   0.01692   0.01086  -0.0927  0.7847  1.0000  -0.7462   0.0000   0.0000   0.0000   0.4587
   0.500   0.4620   0.01694   0.01079  -0.0914  0.7768  1.0000  -0.7677   0.0000   0.0000   0.0000   0.4461
   0.750   0.4851   0.01694   0.01069  -0.0904  0.7692  1.0000  -0.7910   0.0000   0.0000   0.0000   0.4343
   1.000   0.5111   0.01683   0.01049  -0.0897  0.7629  1.0000  -0.8176   0.0000   0.0000   0.0000   0.4231
   1.250   0.5379   0.01669   0.01027  -0.0891  0.7563  1.0000  -0.8456   0.0000   0.0000   0.0000   0.4128
   1.500   0.5632   0.01666   0.01018  -0.0884  0.7481  1.0000  -0.8728   0.0000   0.0000   0.0000   0.4038
   1.750   0.5893   0.01659   0.01005  -0.0877  0.7399  1.0000  -0.9054   0.0000   0.0000   0.0000   0.3954
   2.000   0.6159   0.01649   0.00989  -0.0871  0.7317  1.0000  -0.9393   0.0000   0.0000   0.0000   0.3877
   2.250   0.6430   0.01636   0.00971  -0.0865  0.7234  1.0000  -0.9749   0.0000   0.0000   0.0000   0.3806
   2.500   0.6703   0.01622   0.00952  -0.0860  0.7149  1.0000  -1.0114   0.0000   0.0000   0.0000   0.3740
   2.750   0.6978   0.01607   0.00933  -0.0855  0.7061  1.0000  -1.0494   0.0000   0.0000   0.0000   0.3679
   3.000   0.7253   0.01596   0.00918  -0.0850  0.6972  1.0000  -1.0882   0.0000   0.0000   0.0000   0.3623
   3.250   0.7528   0.01586   0.00904  -0.0845  0.6880  1.0000  -1.1285   0.0000   0.0000   0.0000   0.3571
   3.500   0.7804   0.01576   0.00890  -0.0840  0.6783  1.0000  -1.1730   0.0000   0.0000   0.0000   0.3523
   3.750   0.8082   0.01565   0.00875  -0.0836  0.6682  1.0000  -1.2198   0.0000   0.0000   0.0000   0.3477
   4.000   0.8361   0.01552   0.00858  -0.0831  0.6576  1.0000  -1.2675   0.0000   0.0000   0.0000   0.3434
   4.250   0.8625   0.01550   0.00853  -0.0825  0.6449  1.0000  -1.3171   0.0000   0.0000   0.0000   0.3394
   4.500   0.8893   0.01545   0.00845  -0.0820  0.6321  1.0000  -1.3699   0.0000   0.0000   0.0000   0.3356
   4.750   0.9165   0.01544   0.00839  -0.0815  0.6195  1.0000  -1.4261   0.0000   0.0000   0.0000   0.3320
   5.000   0.9423   0.01552   0.00846  -0.0809  0.6053  1.0000  -1.4845   0.0000   0.0000   0.0000   0.3287
   5.250   0.9686   0.01560   0.00849  -0.0803  0.5914  1.0000  -1.5477   0.0000   0.0000   0.0000   0.3255
   5.500   0.9945   0.01571   0.00857  -0.0797  0.5764  1.0000  -1.6126   0.0000   0.0000   0.0000   0.3224
   5.750   1.0193   0.01589   0.00872  -0.0791  0.5602  1.0000  -1.6792   0.0000   0.0000   0.0000   0.3195
   6.000   1.0441   0.01608   0.00888  -0.0783  0.5435  1.0000  -1.7465   0.0000   0.0000   0.0000   0.3166
   6.250   1.0683   0.01632   0.00906  -0.0776  0.5258  1.0000  -1.8232   0.0000   0.0000   0.0000   0.3139
   6.500   1.0920   0.01659   0.00928  -0.0767  0.5076  1.0000  -1.9029   0.0000   0.0000   0.0000   0.3112
   6.750   1.1150   0.01691   0.00956  -0.0758  0.4890  1.0000  -1.9980   0.0000   0.0000   0.0000   0.3086
   7.000   1.1373   0.01728   0.00987  -0.0749  0.4700  1.0000  -2.0971   0.0000   0.0000   0.0000   0.3061
   7.250   1.1589   0.01768   0.01022  -0.0738  0.4504  1.0000  -2.1962   0.0000   0.0000   0.0000   0.3036
   7.500   1.1798   0.01813   0.01061  -0.0727  0.4308  1.0000  -2.2950   0.0000   0.0000   0.0000   0.3012
   7.750   1.1999   0.01862   0.01103  -0.0715  0.4113  1.0000  -2.3952   0.0000   0.0000   0.0000   0.2988
   8.000   1.2187   0.01916   0.01153  -0.0702  0.3910  1.0000  -2.5030   0.0000   0.0000   0.0000   0.2965
   8.250   1.2367   0.01976   0.01208  -0.0688  0.3712  1.0000  -2.6121   0.0000   0.0000   0.0000   0.2941
   8.500   1.2537   0.02039   0.01267  -0.0673  0.3518  1.0000  -2.7236   0.0000   0.0000   0.0000   0.2918
   8.750   1.2698   0.02108   0.01330  -0.0657  0.3330  1.0000  -2.8338   0.0000   0.0000   0.0000   0.2895
   9.000   1.2849   0.02182   0.01398  -0.0640  0.3150  1.0000  -2.9424   0.0000   0.0000   0.0000   0.2872
   9.250   1.2985   0.02261   0.01472  -0.0621  0.2975  1.0000  -3.0483   0.0000   0.0000   0.0000   0.2848
   9.500   1.3103   0.02343   0.01549  -0.0600  0.2811  1.0000  -3.1504   0.0000   0.0000   0.0000   0.2825
   9.750   1.3204   0.02432   0.01631  -0.0578  0.2660  1.0000  -3.2486   0.0000   0.0000   0.0000   0.2800
  10.000   1.3301   0.02528   0.01726  -0.0556  0.2507  1.0000  -3.3453   0.0000   0.0000   0.0000   0.2777
  10.250   1.3397   0.02633   0.01827  -0.0536  0.2370  1.0000  -3.4426   0.0000   0.0000   0.0000   0.2755
  10.500   1.3486   0.02744   0.01937  -0.0517  0.2234  1.0000  -3.5378   0.0000   0.0000   0.0000   0.2733
  10.750   1.3572   0.02864   0.02051  -0.0498  0.2110  1.0000  -3.6328   0.0000   0.0000   0.0000   0.2713
  11.000   1.3648   0.02991   0.02181  -0.0480  0.1983  1.0000  -3.7239   0.0000   0.0000   0.0000   0.2693
  11.250   1.3720   0.03125   0.02313  -0.0462  0.1869  1.0000  -3.8148   0.0000   0.0000   0.0000   0.2674
  11.500   1.3788   0.03268   0.02452  -0.0446  0.1763  1.0000  -3.9050   0.0000   0.0000   0.0000   0.2656
  11.750   1.3849   0.03420   0.02606  -0.0429  0.1657  1.0000  -3.9912   0.0000   0.0000   0.0000   0.2638
  12.000   1.3906   0.03580   0.02768  -0.0414  0.1558  1.0000  -4.0761   0.0000   0.0000   0.0000   0.2621
  12.250   1.3961   0.03747   0.02936  -0.0399  0.1466  1.0000  -4.1595   0.0000   0.0000   0.0000   0.2605
  12.500   1.4012   0.03922   0.03113  -0.0384  0.1381  1.0000  -4.2411   0.0000   0.0000   0.0000   0.2589
  12.750   1.4061   0.04103   0.03294  -0.0371  0.1303  1.0000  -4.3220   0.0000   0.0000   0.0000   0.2574
  13.000   1.4112   0.04287   0.03477  -0.0358  0.1232  1.0000  -4.4083   0.0000   0.0000   0.0000   0.2559
  13.250   1.4155   0.04481   0.03673  -0.0346  0.1163  1.0000  -4.4898   0.0000   0.0000   0.0000   0.2545
  13.500   1.4188   0.04689   0.03891  -0.0334  0.1098  1.0000  -4.5648   0.0000   0.0000   0.0000   0.2531
  13.750   1.4224   0.04900   0.04105  -0.0323  0.1040  1.0000  -4.6415   0.0000   0.0000   0.0000   0.2518
  14.000   1.4282   0.05091   0.04287  -0.0313  0.0987  1.0000  -4.7308   0.0000   0.0000   0.0000   0.2505
  14.250   1.4287   0.05337   0.04551  -0.0304  0.0936  1.0000  -4.7911   0.0000   0.0000   0.0000   0.2493
  14.500   1.4341   0.05544   0.04757  -0.0294  0.0893  1.0000  -4.8730   0.0000   0.0000   0.0000   0.2481
  14.750   1.4364   0.05783   0.05009  -0.0287  0.0852  1.0000  -4.9425   0.0000   0.0000   0.0000   0.2470
  15.000   1.4451   0.05971   0.05193  -0.0277  0.0816  1.0000  -5.0478   0.0000   0.0000   0.0000   0.2458
  15.250   1.4458   0.06239   0.05481  -0.0271  0.0785  1.0000  -5.1128   0.0000   0.0000   0.0000   0.2448
  15.500   1.4573   0.06399   0.05632  -0.0263  0.0754  1.0000  -5.2337   0.0000   0.0000   0.0000   0.2436
  15.750   1.4591   0.06674   0.05924  -0.0256  0.0730  1.0000  -5.2997   0.0000   0.0000   0.0000   0.2427
  16.000   1.4578   0.06976   0.06246  -0.0253  0.0707  1.0000  -5.3544   0.0000   0.0000   0.0000   0.2419
  16.250   1.4648   0.07187   0.06458  -0.0248  0.0684  1.0000  -5.4542   0.0000   0.0000   0.0000   0.2410
  16.500   1.4750   0.07388   0.06660  -0.0241  0.0663  1.0000  -5.5613   0.0000   0.0000   0.0000   0.2399
  16.750   1.4666   0.07783   0.07085  -0.0242  0.0650  1.0000  -5.5767   0.0000   0.0000   0.0000   0.2395
  17.000   1.4610   0.08162   0.07487  -0.0245  0.0637  1.0000  -5.6038   0.0000   0.0000   0.0000   0.2392
  17.250   1.4571   0.08526   0.07869  -0.0249  0.0624  1.0000  -5.6449   0.0000   0.0000   0.0000   0.2390
  17.500   1.4566   0.08850   0.08204  -0.0252  0.0613  1.0000  -5.7157   0.0000   0.0000   0.0000   0.2386
  17.750   1.4765   0.08945   0.08287  -0.0240  0.0596  1.0000  -5.9001   0.0000   0.0000   0.0000   0.2371
  18.000   1.4612   0.09466   0.08836  -0.0254  0.0591  1.0000  -5.8835   0.0000   0.0000   0.0000   0.2377
  18.250   1.4406   0.10079   0.09480  -0.0278  0.0587  1.0000  -5.8337   0.0000   0.0000   0.0000   0.2390
  18.500   1.4183   0.10756   0.10187  -0.0310  0.0584  1.0000  -5.7657   0.0000   0.0000   0.0000   0.2409
  18.750   1.3932   0.11519   0.10980  -0.0352  0.0582  1.0000  -5.6677   0.0000   0.0000   0.0000   0.2436
  19.000   1.3639   0.12409   0.11899  -0.0407  0.0582  1.0000  -5.5246   0.0000   0.0000   0.0000   0.2476
  19.250   1.3280   0.13492   0.13011  -0.0481  0.0584  1.0000  -5.3171   0.0000   0.0000   0.0000   0.2535
  19.500   1.2813   0.14915   0.14462  -0.0586  0.0590  1.0000  -4.9924   0.0000   0.0000   0.0000   0.2627


