xflr5 v6.61

 Calculated polar for: QX0126

 1 1 Reynolds number fixed          Mach number fixed         

 xtrf =   1.000 (top)        1.000 (bottom)
 Mach =   0.000     Re =     0.180 e 6     Ncrit =   9.000

  alpha     CL        CD       CDp       Cm    Top Xtr Bot Xtr   Cpmin    Chinge    XCp    
 ------- -------- --------- --------- -------- ------- ------- -------- --------- ---------
  -8.750  -0.4378   0.05229   0.04817  -0.0939  0.9678  0.0608  -3.2720   0.0000   0.0000   0.0000   0.0221
  -8.500  -0.4087   0.05106   0.04699  -0.0956  0.9644  0.0619  -3.0842   0.0000   0.0000   0.0000   0.0027
  -8.250  -0.3654   0.05438   0.05049  -0.0951  0.9628  0.0709  -2.7084   0.0000   0.0000   0.0000  -0.0241
  -8.000  -0.3457   0.05355   0.04962  -0.0967  0.9566  0.0792  -2.5571   0.0000   0.0000   0.0000  -0.0434
  -7.750  -0.3967   0.03197   0.02584  -0.1017  0.9422  0.0582  -3.4297   0.0000   0.0000   0.0000  -0.0202
  -7.500  -0.3756   0.02926   0.02257  -0.1018  0.9370  0.0591  -3.3824   0.0000   0.0000   0.0000  -0.0353
  -7.250  -0.3549   0.02730   0.02021  -0.1014  0.9312  0.0607  -3.2990   0.0000   0.0000   0.0000  -0.0503
  -7.000  -0.3265   0.02617   0.01907  -0.1020  0.9273  0.0628  -3.1371   0.0000   0.0000   0.0000  -0.0775
  -6.750  -0.3035   0.02510   0.01783  -0.1014  0.9214  0.0649  -3.0189   0.0000   0.0000   0.0000  -0.0997
  -6.500  -0.2757   0.02381   0.01617  -0.1015  0.9177  0.0673  -2.9152   0.0000   0.0000   0.0000  -0.1343
  -6.250  -0.2529   0.02279   0.01508  -0.1008  0.9116  0.0699  -2.7986   0.0000   0.0000   0.0000  -0.1657
  -6.000  -0.2263   0.02218   0.01440  -0.1006  0.9071  0.0737  -2.6640   0.0000   0.0000   0.0000  -0.2126
  -5.750  -0.2011   0.02136   0.01342  -0.1001  0.9018  0.0775  -2.5584   0.0000   0.0000   0.0000  -0.2671
  -5.500  -0.1759   0.02078   0.01286  -0.0996  0.8966  0.0817  -2.4363   0.0000   0.0000   0.0000  -0.3376
  -5.250  -0.1496   0.02014   0.01215  -0.0992  0.8920  0.0871  -2.3171   0.0000   0.0000   0.0000  -0.4370
  -5.000  -0.1247   0.01978   0.01170  -0.0987  0.8864  0.0935  -2.2090   0.0000   0.0000   0.0000  -0.5678
  -4.750  -0.0982   0.01917   0.01116  -0.0983  0.8823  0.1006  -2.0928   0.0000   0.0000   0.0000  -0.7825
  -4.500  -0.0741   0.01877   0.01080  -0.0977  0.8761  0.1088  -1.9832   0.0000   0.0000   0.0000  -1.1084
  -4.250  -0.0478   0.01838   0.01038  -0.0972  0.8715  0.1199  -1.8691   0.0000   0.0000   0.0000  -1.8425
  -4.000  -0.0229   0.01794   0.01003  -0.0966  0.8658  0.1321  -1.7620   0.0000   0.0000   0.0000  -4.0823
  -3.750   0.0022   0.01758   0.00972  -0.0961  0.8603  0.1483  -1.6612   0.0000   0.0000   0.0000  45.8528
  -3.500   0.0283   0.01716   0.00941  -0.0956  0.8557  0.1678  -1.5555   0.0000   0.0000   0.0000   3.7039
  -3.250   0.0531   0.01689   0.00924  -0.0951  0.8495  0.1907  -1.4534   0.0000   0.0000   0.0000   2.0783
  -3.000   0.0800   0.01648   0.00893  -0.0946  0.8457  0.2209  -1.3467   0.0000   0.0000   0.0000   1.4561
  -2.750   0.1046   0.01622   0.00884  -0.0942  0.8390  0.2576  -1.2456   0.0000   0.0000   0.0000   1.1662
  -2.500   0.1297   0.01589   0.00873  -0.0937  0.8332  0.3063  -1.1449   0.0000   0.0000   0.0000   0.9839
  -2.250   0.1555   0.01543   0.00854  -0.0931  0.8285  0.3720  -1.0501   0.0000   0.0000   0.0000   0.8574
  -2.000   0.1792   0.01505   0.00853  -0.0924  0.8219  0.4585  -0.9604   0.0000   0.0000   0.0000   0.7720
  -1.750   0.2029   0.01463   0.00851  -0.0912  0.8166  0.5665  -0.8714   0.0000   0.0000   0.0000   0.7044
  -1.500   0.2257   0.01432   0.00854  -0.0895  0.8110  0.6655  -0.7848   0.0000   0.0000   0.0000   0.6502
  -1.250   0.2476   0.01420   0.00864  -0.0877  0.8045  0.7416  -0.7128   0.0000   0.0000   0.0000   0.6065
  -1.000   0.2707   0.01400   0.00854  -0.0856  0.8003  0.7994  -0.6460   0.0000   0.0000   0.0000   0.5678
  -0.750   0.2919   0.01396   0.00857  -0.0834  0.7934  0.8476  -0.6364   0.0000   0.0000   0.0000   0.5366
  -0.500   0.3145   0.01391   0.00855  -0.0814  0.7868  0.8926  -0.6555   0.0000   0.0000   0.0000   0.5090
  -0.250   0.3464   0.01368   0.00827  -0.0809  0.7827  0.9352  -0.6806   0.0000   0.0000   0.0000   0.4833
   0.000   0.3911   0.01360   0.00814  -0.0838  0.7758  0.9710  -0.7155   0.0000   0.0000   0.0000   0.4634
   0.250   0.4469   0.01343   0.00788  -0.0892  0.7698  0.9959  -0.7574   0.0000   0.0000   0.0000   0.4481
   0.500   0.4775   0.01324   0.00757  -0.0896  0.7647  1.0000  -0.7858   0.0000   0.0000   0.0000   0.4359
   0.750   0.4991   0.01324   0.00750  -0.0886  0.7567  1.0000  -0.8082   0.0000   0.0000   0.0000   0.4253
   1.000   0.5224   0.01323   0.00742  -0.0877  0.7490  1.0000  -0.8328   0.0000   0.0000   0.0000   0.4154
   1.250   0.5472   0.01319   0.00730  -0.0871  0.7413  1.0000  -0.8594   0.0000   0.0000   0.0000   0.4062
   1.500   0.5731   0.01312   0.00716  -0.0865  0.7336  1.0000  -0.8872   0.0000   0.0000   0.0000   0.3977
   1.750   0.5997   0.01303   0.00700  -0.0860  0.7259  1.0000  -0.9207   0.0000   0.0000   0.0000   0.3898
   2.000   0.6268   0.01294   0.00684  -0.0855  0.7179  1.0000  -0.9554   0.0000   0.0000   0.0000   0.3826
   2.250   0.6538   0.01286   0.00670  -0.0851  0.7094  1.0000  -0.9911   0.0000   0.0000   0.0000   0.3760
   2.500   0.6809   0.01281   0.00660  -0.0847  0.7004  1.0000  -1.0276   0.0000   0.0000   0.0000   0.3700
   2.750   0.7080   0.01279   0.00653  -0.0843  0.6912  1.0000  -1.0651   0.0000   0.0000   0.0000   0.3644
   3.000   0.7350   0.01279   0.00649  -0.0839  0.6815  1.0000  -1.1037   0.0000   0.0000   0.0000   0.3592
   3.250   0.7619   0.01279   0.00645  -0.0836  0.6711  1.0000  -1.1436   0.0000   0.0000   0.0000   0.3544
   3.500   0.7890   0.01279   0.00641  -0.0832  0.6603  1.0000  -1.1883   0.0000   0.0000   0.0000   0.3499
   3.750   0.8162   0.01279   0.00635  -0.0828  0.6489  1.0000  -1.2348   0.0000   0.0000   0.0000   0.3456
   4.000   0.8426   0.01282   0.00635  -0.0823  0.6361  1.0000  -1.2808   0.0000   0.0000   0.0000   0.3416
   4.250   0.8691   0.01288   0.00637  -0.0819  0.6230  1.0000  -1.3311   0.0000   0.0000   0.0000   0.3378
   4.500   0.8957   0.01297   0.00641  -0.0814  0.6100  1.0000  -1.3838   0.0000   0.0000   0.0000   0.3343
   4.750   0.9217   0.01310   0.00651  -0.0810  0.5960  1.0000  -1.4387   0.0000   0.0000   0.0000   0.3309
   5.000   0.9477   0.01324   0.00661  -0.0805  0.5818  1.0000  -1.4986   0.0000   0.0000   0.0000   0.3277
   5.250   0.9734   0.01341   0.00673  -0.0800  0.5670  1.0000  -1.5610   0.0000   0.0000   0.0000   0.3246
   5.500   0.9985   0.01362   0.00690  -0.0794  0.5508  1.0000  -1.6256   0.0000   0.0000   0.0000   0.3217
   5.750   1.0232   0.01385   0.00709  -0.0788  0.5340  1.0000  -1.6923   0.0000   0.0000   0.0000   0.3189
   6.000   1.0474   0.01411   0.00730  -0.0781  0.5165  1.0000  -1.7597   0.0000   0.0000   0.0000   0.3161
   6.250   1.0713   0.01441   0.00754  -0.0774  0.4987  1.0000  -1.8359   0.0000   0.0000   0.0000   0.3135
   6.500   1.0946   0.01474   0.00782  -0.0767  0.4806  1.0000  -1.9157   0.0000   0.0000   0.0000   0.3109
   6.750   1.1172   0.01510   0.00813  -0.0758  0.4618  1.0000  -2.0140   0.0000   0.0000   0.0000   0.3084
   7.000   1.1392   0.01549   0.00847  -0.0749  0.4425  1.0000  -2.1127   0.0000   0.0000   0.0000   0.3059
   7.250   1.1606   0.01592   0.00885  -0.0739  0.4232  1.0000  -2.2114   0.0000   0.0000   0.0000   0.3035
   7.500   1.1811   0.01640   0.00926  -0.0728  0.4037  1.0000  -2.3098   0.0000   0.0000   0.0000   0.3012
   7.750   1.2007   0.01691   0.00971  -0.0716  0.3842  1.0000  -2.4106   0.0000   0.0000   0.0000   0.2988
   8.000   1.2195   0.01747   0.01020  -0.0703  0.3647  1.0000  -2.5196   0.0000   0.0000   0.0000   0.2965
   8.250   1.2374   0.01805   0.01075  -0.0690  0.3454  1.0000  -2.6327   0.0000   0.0000   0.0000   0.2942
   8.500   1.2544   0.01869   0.01133  -0.0675  0.3268  1.0000  -2.7447   0.0000   0.0000   0.0000   0.2919
   8.750   1.2701   0.01938   0.01195  -0.0659  0.3087  1.0000  -2.8548   0.0000   0.0000   0.0000   0.2896
   9.000   1.2845   0.02011   0.01263  -0.0642  0.2913  1.0000  -2.9627   0.0000   0.0000   0.0000   0.2873
   9.250   1.2964   0.02087   0.01334  -0.0620  0.2751  1.0000  -3.0650   0.0000   0.0000   0.0000   0.2848
   9.500   1.3079   0.02169   0.01413  -0.0600  0.2592  1.0000  -3.1669   0.0000   0.0000   0.0000   0.2824
   9.750   1.3192   0.02260   0.01501  -0.0581  0.2446  1.0000  -3.2685   0.0000   0.0000   0.0000   0.2802
  10.000   1.3297   0.02359   0.01595  -0.0562  0.2308  1.0000  -3.3688   0.0000   0.0000   0.0000   0.2780
  10.250   1.3401   0.02463   0.01699  -0.0544  0.2173  1.0000  -3.4691   0.0000   0.0000   0.0000   0.2760
  10.500   1.3496   0.02576   0.01809  -0.0527  0.2044  1.0000  -3.5676   0.0000   0.0000   0.0000   0.2740
  10.750   1.3587   0.02696   0.01926  -0.0510  0.1922  1.0000  -3.6649   0.0000   0.0000   0.0000   0.2721
  11.000   1.3675   0.02821   0.02052  -0.0494  0.1802  1.0000  -3.7618   0.0000   0.0000   0.0000   0.2702
  11.250   1.3753   0.02957   0.02186  -0.0479  0.1693  1.0000  -3.8559   0.0000   0.0000   0.0000   0.2685
  11.500   1.3823   0.03104   0.02331  -0.0463  0.1594  1.0000  -3.9477   0.0000   0.0000   0.0000   0.2667
  11.750   1.3888   0.03258   0.02483  -0.0448  0.1501  1.0000  -4.0377   0.0000   0.0000   0.0000   0.2650
  12.000   1.3951   0.03419   0.02644  -0.0434  0.1412  1.0000  -4.1264   0.0000   0.0000   0.0000   0.2634
  12.250   1.4010   0.03586   0.02813  -0.0420  0.1328  1.0000  -4.2135   0.0000   0.0000   0.0000   0.2618
  12.500   1.4065   0.03761   0.02991  -0.0407  0.1247  1.0000  -4.2983   0.0000   0.0000   0.0000   0.2603
  12.750   1.4113   0.03945   0.03179  -0.0395  0.1172  1.0000  -4.3807   0.0000   0.0000   0.0000   0.2589
  13.000   1.4154   0.04140   0.03380  -0.0383  0.1101  1.0000  -4.4646   0.0000   0.0000   0.0000   0.2575
  13.250   1.4184   0.04348   0.03590  -0.0372  0.1038  1.0000  -4.5448   0.0000   0.0000   0.0000   0.2561
  13.500   1.4205   0.04567   0.03805  -0.0361  0.0983  1.0000  -4.6229   0.0000   0.0000   0.0000   0.2548
  13.750   1.4233   0.04788   0.04035  -0.0352  0.0927  1.0000  -4.6997   0.0000   0.0000   0.0000   0.2537
  14.000   1.4254   0.05018   0.04270  -0.0343  0.0878  1.0000  -4.7729   0.0000   0.0000   0.0000   0.2525
  14.250   1.4277   0.05251   0.04503  -0.0335  0.0836  1.0000  -4.8480   0.0000   0.0000   0.0000   0.2514
  14.500   1.4304   0.05489   0.04750  -0.0327  0.0796  1.0000  -4.9182   0.0000   0.0000   0.0000   0.2503
  14.750   1.4332   0.05727   0.04991  -0.0320  0.0762  1.0000  -4.9931   0.0000   0.0000   0.0000   0.2493
  15.000   1.4363   0.05966   0.05235  -0.0313  0.0730  1.0000  -5.0743   0.0000   0.0000   0.0000   0.2482
  15.250   1.4388   0.06221   0.05501  -0.0309  0.0699  1.0000  -5.1542   0.0000   0.0000   0.0000   0.2473
  15.500   1.4444   0.06428   0.05699  -0.0302  0.0673  1.0000  -5.2549   0.0000   0.0000   0.0000   0.2462
  15.750   1.4455   0.06712   0.06002  -0.0299  0.0649  1.0000  -5.3227   0.0000   0.0000   0.0000   0.2455
  16.000   1.4474   0.06984   0.06285  -0.0297  0.0626  1.0000  -5.3986   0.0000   0.0000   0.0000   0.2448
  16.250   1.4528   0.07206   0.06506  -0.0293  0.0607  1.0000  -5.4956   0.0000   0.0000   0.0000   0.2439
  16.500   1.4603   0.07404   0.06706  -0.0284  0.0588  1.0000  -5.5947   0.0000   0.0000   0.0000   0.2427
  16.750   1.4586   0.07738   0.07063  -0.0286  0.0574  1.0000  -5.6448   0.0000   0.0000   0.0000   0.2423
  17.000   1.4589   0.08047   0.07387  -0.0287  0.0560  1.0000  -5.7064   0.0000   0.0000   0.0000   0.2418
  17.250   1.4613   0.08325   0.07674  -0.0288  0.0546  1.0000  -5.7813   0.0000   0.0000   0.0000   0.2413
  17.500   1.4683   0.08535   0.07884  -0.0285  0.0533  1.0000  -5.8969   0.0000   0.0000   0.0000   0.2404
  17.750   1.4776   0.08718   0.08067  -0.0276  0.0519  1.0000  -6.0541   0.0000   0.0000   0.0000   0.2392
  18.000   1.4687   0.09170   0.08545  -0.0289  0.0513  1.0000  -6.0914   0.0000   0.0000   0.0000   0.2396
  18.250   1.4601   0.09629   0.09028  -0.0303  0.0505  1.0000  -6.1276   0.0000   0.0000   0.0000   0.2400
  18.500   1.4519   0.10092   0.09514  -0.0319  0.0498  1.0000  -6.1636   0.0000   0.0000   0.0000   0.2407
  18.750   1.4438   0.10564   0.10006  -0.0337  0.0490  1.0000  -6.1975   0.0000   0.0000   0.0000   0.2414
  19.000   1.4346   0.11063   0.10524  -0.0359  0.0484  1.0000  -6.2201   0.0000   0.0000   0.0000   0.2425
  19.250   1.4249   0.11582   0.11062  -0.0384  0.0479  1.0000  -6.2335   0.0000   0.0000   0.0000   0.2438
  19.500   1.4143   0.12131   0.11628  -0.0414  0.0474  1.0000  -6.2353   0.0000   0.0000   0.0000   0.2455
  19.750   1.4026   0.12713   0.12228  -0.0448  0.0470  1.0000  -6.2226   0.0000   0.0000   0.0000   0.2476
  20.000   1.3888   0.13352   0.12885  -0.0488  0.0467  1.0000  -6.1850   0.0000   0.0000   0.0000   0.2502


