xflr5 v6.61

 Calculated polar for: QX0226

 1 1 Reynolds number fixed          Mach number fixed         

 xtrf =   1.000 (top)        1.000 (bottom)
 Mach =   0.000     Re =     0.300 e 6     Ncrit =   9.000

  alpha     CL        CD       CDp       Cm    Top Xtr Bot Xtr   Cpmin    Chinge    XCp    
 ------- -------- --------- --------- -------- ------- ------- -------- --------- ---------
 -10.000  -0.1566   0.09701   0.09370  -0.0831  0.8988  0.0491  -1.7349   0.0000   0.0000   0.0000  -0.3253
  -9.750  -0.1696   0.09050   0.08722  -0.0893  0.8927  0.0515  -1.9767   0.0000   0.0000   0.0000  -0.3173
  -9.500  -0.1555   0.08910   0.08578  -0.0880  0.8889  0.0520  -1.8510   0.0000   0.0000   0.0000  -0.3585
  -9.250  -0.1456   0.08675   0.08343  -0.0886  0.8842  0.0531  -1.7961   0.0000   0.0000   0.0000  -0.4031
  -9.000  -0.1655   0.07861   0.07531  -0.0972  0.8784  0.0560  -2.1068   0.0000   0.0000   0.0000  -0.3757
  -8.750  -0.1498   0.07749   0.07417  -0.0957  0.8744  0.0565  -1.9673   0.0000   0.0000   0.0000  -0.4303
  -8.500  -0.1379   0.07569   0.07236  -0.0957  0.8701  0.0576  -1.8834   0.0000   0.0000   0.0000  -0.4871
  -7.750  -0.2265   0.02536   0.01920  -0.1378  0.8498  0.0399  -3.8575   0.0000   0.0000   0.0000  -0.3866
  -7.500  -0.2009   0.02459   0.01848  -0.1379  0.8468  0.0408  -3.6742   0.0000   0.0000   0.0000  -0.4666
  -7.250  -0.1768   0.02321   0.01685  -0.1379  0.8435  0.0417  -3.5559   0.0000   0.0000   0.0000  -0.5635
  -7.000  -0.1524   0.02180   0.01506  -0.1379  0.8394  0.0428  -3.4534   0.0000   0.0000   0.0000  -0.6921
  -6.750  -0.1265   0.02075   0.01387  -0.1379  0.8364  0.0440  -3.3121   0.0000   0.0000   0.0000  -0.8830
  -6.500  -0.0998   0.02003   0.01308  -0.1379  0.8337  0.0454  -3.1630   0.0000   0.0000   0.0000  -1.1837
  -6.250  -0.0737   0.01920   0.01201  -0.1378  0.8294  0.0469  -3.0449   0.0000   0.0000   0.0000  -1.6866
  -6.000  -0.0470   0.01846   0.01127  -0.1378  0.8263  0.0485  -2.8942   0.0000   0.0000   0.0000  -2.7831
  -5.750  -0.0193   0.01787   0.01056  -0.1378  0.8238  0.0506  -2.7601   0.0000   0.0000   0.0000  -7.1151
  -5.500   0.0068   0.01726   0.00995  -0.1377  0.8196  0.0525  -2.6301   0.0000   0.0000   0.0000  21.1505
  -5.250   0.0342   0.01680   0.00943  -0.1377  0.8162  0.0551  -2.4943   0.0000   0.0000   0.0000   4.3998
  -5.000   0.0618   0.01624   0.00886  -0.1378  0.8137  0.0577  -2.3567   0.0000   0.0000   0.0000   2.5413
  -4.750   0.0889   0.01588   0.00844  -0.1377  0.8099  0.0610  -2.2341   0.0000   0.0000   0.0000   1.8406
  -4.500   0.1159   0.01545   0.00807  -0.1377  0.8062  0.0646  -2.1053   0.0000   0.0000   0.0000   1.4684
  -4.250   0.1439   0.01501   0.00763  -0.1378  0.8035  0.0689  -1.9781   0.0000   0.0000   0.0000   1.2302
  -4.000   0.1714   0.01467   0.00729  -0.1378  0.8002  0.0742  -1.8538   0.0000   0.0000   0.0000   1.0721
  -3.750   0.1986   0.01436   0.00701  -0.1379  0.7962  0.0809  -1.7346   0.0000   0.0000   0.0000   0.9586
  -3.500   0.2271   0.01401   0.00668  -0.1380  0.7933  0.0904  -1.6172   0.0000   0.0000   0.0000   0.8695
  -3.250   0.2553   0.01367   0.00639  -0.1382  0.7904  0.1045  -1.5018   0.0000   0.0000   0.0000   0.8008
  -3.000   0.2824   0.01339   0.00623  -0.1383  0.7860  0.1281  -1.3899   0.0000   0.0000   0.0000   0.7474
  -2.750   0.3110   0.01305   0.00602  -0.1385  0.7829  0.1651  -1.2767   0.0000   0.0000   0.0000   0.7018
  -2.500   0.3397   0.01279   0.00587  -0.1388  0.7801  0.2069  -1.1652   0.0000   0.0000   0.0000   0.6638
  -2.250   0.3667   0.01263   0.00586  -0.1389  0.7754  0.2490  -1.0581   0.0000   0.0000   0.0000   0.6329
  -2.000   0.3955   0.01238   0.00574  -0.1391  0.7723  0.2964  -0.9525   0.0000   0.0000   0.0000   0.6051
  -1.750   0.4239   0.01215   0.00567  -0.1393  0.7690  0.3538  -0.8514   0.0000   0.0000   0.0000   0.5813
  -1.500   0.4509   0.01194   0.00570  -0.1394  0.7644  0.4226  -0.7743   0.0000   0.0000   0.0000   0.5610
  -1.250   0.4792   0.01164   0.00564  -0.1395  0.7613  0.5065  -0.7926   0.0000   0.0000   0.0000   0.5423
  -1.000   0.5059   0.01146   0.00570  -0.1392  0.7572  0.5893  -0.8104   0.0000   0.0000   0.0000   0.5259
  -0.750   0.5322   0.01131   0.00577  -0.1388  0.7530  0.6642  -0.8289   0.0000   0.0000   0.0000   0.5109
  -0.500   0.5598   0.01116   0.00571  -0.1384  0.7500  0.7237  -0.8489   0.0000   0.0000   0.0000   0.4968
  -0.250   0.5842   0.01112   0.00582  -0.1375  0.7449  0.7711  -0.8670   0.0000   0.0000   0.0000   0.4845
   0.000   0.6097   0.01100   0.00577  -0.1366  0.7411  0.8149  -0.8868   0.0000   0.0000   0.0000   0.4728
   0.250   0.6333   0.01091   0.00576  -0.1353  0.7371  0.8583  -0.9063   0.0000   0.0000   0.0000   0.4620
   0.500   0.6549   0.01081   0.00573  -0.1335  0.7323  0.9068  -0.9252   0.0000   0.0000   0.0000   0.4518
   0.750   0.6908   0.01062   0.00551  -0.1347  0.7290  0.9703  -0.9528   0.0000   0.0000   0.0000   0.4426
   1.000   0.7228   0.01067   0.00554  -0.1358  0.7234  1.0000  -0.9787   0.0000   0.0000   0.0000   0.4351
   1.250   0.7532   0.01066   0.00543  -0.1363  0.7195  1.0000  -1.0050   0.0000   0.0000   0.0000   0.4279
   1.500   0.7810   0.01074   0.00547  -0.1364  0.7139  1.0000  -1.0299   0.0000   0.0000   0.0000   0.4213
   1.750   0.8108   0.01074   0.00539  -0.1368  0.7095  1.0000  -1.0574   0.0000   0.0000   0.0000   0.4149
   2.000   0.8384   0.01081   0.00544  -0.1368  0.7039  1.0000  -1.0846   0.0000   0.0000   0.0000   0.4091
   2.250   0.8680   0.01081   0.00537  -0.1371  0.6992  1.0000  -1.1140   0.0000   0.0000   0.0000   0.4036
   2.500   0.8952   0.01089   0.00543  -0.1371  0.6930  1.0000  -1.1423   0.0000   0.0000   0.0000   0.3984
   2.750   0.9250   0.01088   0.00536  -0.1374  0.6883  1.0000  -1.1739   0.0000   0.0000   0.0000   0.3934
   3.000   0.9515   0.01096   0.00545  -0.1372  0.6815  1.0000  -1.2042   0.0000   0.0000   0.0000   0.3888
   3.250   0.9798   0.01100   0.00545  -0.1373  0.6757  1.0000  -1.2366   0.0000   0.0000   0.0000   0.3844
   3.500   1.0077   0.01104   0.00546  -0.1373  0.6693  1.0000  -1.2705   0.0000   0.0000   0.0000   0.3802
   3.750   1.0344   0.01112   0.00554  -0.1371  0.6621  1.0000  -1.3060   0.0000   0.0000   0.0000   0.3761
   4.000   1.0620   0.01117   0.00557  -0.1371  0.6554  1.0000  -1.3430   0.0000   0.0000   0.0000   0.3723
   4.250   1.0896   0.01123   0.00559  -0.1370  0.6482  1.0000  -1.3830   0.0000   0.0000   0.0000   0.3686
   4.500   1.1156   0.01132   0.00570  -0.1367  0.6398  1.0000  -1.4231   0.0000   0.0000   0.0000   0.3651
   4.750   1.1416   0.01141   0.00579  -0.1364  0.6312  1.0000  -1.4650   0.0000   0.0000   0.0000   0.3617
   5.000   1.1676   0.01151   0.00589  -0.1360  0.6221  1.0000  -1.5096   0.0000   0.0000   0.0000   0.3584
   5.250   1.1931   0.01162   0.00599  -0.1356  0.6124  1.0000  -1.5566   0.0000   0.0000   0.0000   0.3552
   5.500   1.2183   0.01175   0.00612  -0.1352  0.6022  1.0000  -1.6055   0.0000   0.0000   0.0000   0.3521
   5.750   1.2430   0.01190   0.00626  -0.1346  0.5912  1.0000  -1.6596   0.0000   0.0000   0.0000   0.3491
   6.000   1.2673   0.01207   0.00641  -0.1340  0.5797  1.0000  -1.7208   0.0000   0.0000   0.0000   0.3462
   6.250   1.2911   0.01227   0.00658  -0.1333  0.5677  1.0000  -1.7889   0.0000   0.0000   0.0000   0.3434
   6.500   1.3136   0.01250   0.00681  -0.1324  0.5540  1.0000  -1.8628   0.0000   0.0000   0.0000   0.3406
   6.750   1.3354   0.01276   0.00705  -0.1314  0.5398  1.0000  -1.9387   0.0000   0.0000   0.0000   0.3378
   7.000   1.3563   0.01306   0.00732  -0.1303  0.5249  1.0000  -2.0168   0.0000   0.0000   0.0000   0.3351
   7.250   1.3759   0.01341   0.00764  -0.1289  0.5089  1.0000  -2.0968   0.0000   0.0000   0.0000   0.3323
   7.500   1.3942   0.01380   0.00799  -0.1274  0.4920  1.0000  -2.1758   0.0000   0.0000   0.0000   0.3296
   7.750   1.4107   0.01425   0.00839  -0.1255  0.4745  1.0000  -2.2552   0.0000   0.0000   0.0000   0.3268
   8.000   1.4248   0.01477   0.00884  -0.1233  0.4568  1.0000  -2.3312   0.0000   0.0000   0.0000   0.3240
   8.250   1.4367   0.01532   0.00935  -0.1208  0.4391  1.0000  -2.4192   0.0000   0.0000   0.0000   0.3211
   8.500   1.4483   0.01597   0.00995  -0.1183  0.4218  1.0000  -2.5178   0.0000   0.0000   0.0000   0.3183
   8.750   1.4589   0.01671   0.01063  -0.1158  0.4047  1.0000  -2.6152   0.0000   0.0000   0.0000   0.3156
   9.000   1.4692   0.01751   0.01139  -0.1134  0.3876  1.0000  -2.7128   0.0000   0.0000   0.0000   0.3130
   9.250   1.4793   0.01838   0.01222  -0.1112  0.3710  1.0000  -2.8108   0.0000   0.0000   0.0000   0.3105
   9.500   1.4884   0.01935   0.01314  -0.1089  0.3550  1.0000  -2.9071   0.0000   0.0000   0.0000   0.3081
   9.750   1.4979   0.02036   0.01412  -0.1067  0.3386  1.0000  -3.0051   0.0000   0.0000   0.0000   0.3058
  10.000   1.5064   0.02146   0.01519  -0.1046  0.3228  1.0000  -3.1043   0.0000   0.0000   0.0000   0.3035
  10.250   1.5142   0.02266   0.01634  -0.1025  0.3070  1.0000  -3.2028   0.0000   0.0000   0.0000   0.3013
  10.500   1.5221   0.02389   0.01755  -0.1005  0.2912  1.0000  -3.3023   0.0000   0.0000   0.0000   0.2992
  11.000   1.5352   0.02666   0.02025  -0.0965  0.2602  1.0000  -3.4955   0.0000   0.0000   0.0000   0.2950
  11.250   1.5404   0.02819   0.02174  -0.0945  0.2449  1.0000  -3.5892   0.0000   0.0000   0.0000   0.2930
  11.500   1.5450   0.02981   0.02332  -0.0925  0.2293  1.0000  -3.6814   0.0000   0.0000   0.0000   0.2911
  11.750   1.5493   0.03148   0.02496  -0.0906  0.2139  1.0000  -3.7734   0.0000   0.0000   0.0000   0.2892
  12.000   1.5519   0.03333   0.02676  -0.0887  0.1992  1.0000  -3.8600   0.0000   0.0000   0.0000   0.2874
  12.250   1.5551   0.03519   0.02858  -0.0869  0.1841  1.0000  -3.9490   0.0000   0.0000   0.0000   0.2856
  12.500   1.5572   0.03718   0.03053  -0.0851  0.1701  1.0000  -4.0347   0.0000   0.0000   0.0000   0.2839
  12.750   1.5592   0.03926   0.03258  -0.0835  0.1568  1.0000  -4.1199   0.0000   0.0000   0.0000   0.2822
  13.000   1.5608   0.04143   0.03472  -0.0819  0.1449  1.0000  -4.2038   0.0000   0.0000   0.0000   0.2807
  13.250   1.5629   0.04362   0.03690  -0.0804  0.1335  1.0000  -4.2919   0.0000   0.0000   0.0000   0.2792
  13.500   1.5638   0.04597   0.03924  -0.0790  0.1233  1.0000  -4.3765   0.0000   0.0000   0.0000   0.2777
  13.750   1.5642   0.04843   0.04169  -0.0777  0.1143  1.0000  -4.4592   0.0000   0.0000   0.0000   0.2763
  14.000   1.5644   0.05097   0.04423  -0.0765  0.1062  1.0000  -4.5408   0.0000   0.0000   0.0000   0.2750
  14.250   1.5646   0.05358   0.04684  -0.0754  0.0990  1.0000  -4.6219   0.0000   0.0000   0.0000   0.2737
  14.500   1.5649   0.05623   0.04952  -0.0744  0.0925  1.0000  -4.7030   0.0000   0.0000   0.0000   0.2725
  14.750   1.5651   0.05894   0.05227  -0.0735  0.0867  1.0000  -4.7832   0.0000   0.0000   0.0000   0.2714
  15.000   1.5646   0.06178   0.05515  -0.0727  0.0817  1.0000  -4.8606   0.0000   0.0000   0.0000   0.2703
  15.250   1.5624   0.06487   0.05826  -0.0720  0.0775  1.0000  -4.9311   0.0000   0.0000   0.0000   0.2694
  15.500   1.5619   0.06782   0.06127  -0.0714  0.0732  1.0000  -5.0071   0.0000   0.0000   0.0000   0.2684
  15.750   1.5607   0.07090   0.06441  -0.0709  0.0695  1.0000  -5.0817   0.0000   0.0000   0.0000   0.2676
  16.000   1.5568   0.07435   0.06788  -0.0704  0.0665  1.0000  -5.1472   0.0000   0.0000   0.0000   0.2669
  16.250   1.5567   0.07740   0.07103  -0.0701  0.0631  1.0000  -5.2360   0.0000   0.0000   0.0000   0.2661
  16.500   1.5521   0.08104   0.07469  -0.0700  0.0605  1.0000  -5.3095   0.0000   0.0000   0.0000   0.2655
  16.750   1.5513   0.08426   0.07801  -0.0699  0.0575  1.0000  -5.3994   0.0000   0.0000   0.0000   0.2649
  17.000   1.5468   0.08797   0.08175  -0.0699  0.0552  1.0000  -5.4711   0.0000   0.0000   0.0000   0.2644
  17.250   1.5450   0.09139   0.08527  -0.0701  0.0525  1.0000  -5.5578   0.0000   0.0000   0.0000   0.2640
  17.500   1.5406   0.09517   0.08908  -0.0703  0.0505  1.0000  -5.6312   0.0000   0.0000   0.0000   0.2637
  17.750   1.5386   0.09871   0.09271  -0.0707  0.0481  1.0000  -5.7144   0.0000   0.0000   0.0000   0.2634
  18.000   1.5345   0.10246   0.09647  -0.0712  0.0464  1.0000  -5.7877   0.0000   0.0000   0.0000   0.2632
  18.250   1.5330   0.10599   0.10013  -0.0717  0.0443  1.0000  -5.8694   0.0000   0.0000   0.0000   0.2630
  18.500   1.5304   0.10955   0.10368  -0.0724  0.0428  1.0000  -5.9495   0.0000   0.0000   0.0000   0.2629
  18.750   1.5292   0.11305   0.10730  -0.0731  0.0411  1.0000  -6.0292   0.0000   0.0000   0.0000   0.2627
  19.000   1.5284   0.11644   0.11073  -0.0740  0.0397  1.0000  -6.1156   0.0000   0.0000   0.0000   0.2627
  19.250   1.5283   0.11964   0.11396  -0.0747  0.0384  1.0000  -6.2044   0.0000   0.0000   0.0000   0.2625
  19.500   1.5282   0.12300   0.11743  -0.0757  0.0371  1.0000  -6.2887   0.0000   0.0000   0.0000   0.2625
  19.750   1.5298   0.12597   0.12041  -0.0766  0.0360  1.0000  -6.3879   0.0000   0.0000   0.0000   0.2624
  20.000   1.5323   0.12868   0.12315  -0.0774  0.0350  1.0000  -6.4901   0.0000   0.0000   0.0000   0.2621


