xflr5 v6.61

 Calculated polar for: QX0226

 1 1 Reynolds number fixed          Mach number fixed         

 xtrf =   1.000 (top)        1.000 (bottom)
 Mach =   0.000     Re =     0.720 e 6     Ncrit =   9.000

  alpha     CL        CD       CDp       Cm    Top Xtr Bot Xtr   Cpmin    Chinge    XCp    
 ------- -------- --------- --------- -------- ------- ------- -------- --------- ---------
 -10.000  -0.4868   0.02022   0.01496  -0.1309  0.8263  0.0227  -6.3049   0.0000   0.0000   0.0000  -0.0383
  -9.750  -0.4628   0.01922   0.01377  -0.1311  0.8234  0.0232  -6.1009   0.0000   0.0000   0.0000  -0.0528
  -9.500  -0.4372   0.01856   0.01311  -0.1313  0.8199  0.0236  -5.8694   0.0000   0.0000   0.0000  -0.0702
  -9.250  -0.4112   0.01796   0.01245  -0.1315  0.8166  0.0240  -5.6447   0.0000   0.0000   0.0000  -0.0900
  -9.000  -0.3851   0.01734   0.01170  -0.1316  0.8138  0.0246  -5.4298   0.0000   0.0000   0.0000  -0.1125
  -8.750  -0.3585   0.01673   0.01091  -0.1318  0.8107  0.0252  -5.2236   0.0000   0.0000   0.0000  -0.1389
  -8.500  -0.3324   0.01602   0.01019  -0.1319  0.8074  0.0258  -5.0099   0.0000   0.0000   0.0000  -0.1689
  -8.250  -0.3054   0.01555   0.00968  -0.1321  0.8044  0.0263  -4.7947   0.0000   0.0000   0.0000  -0.2054
  -8.000  -0.2783   0.01508   0.00912  -0.1322  0.8018  0.0270  -4.5947   0.0000   0.0000   0.0000  -0.2493
  -7.750  -0.2507   0.01460   0.00853  -0.1324  0.7985  0.0277  -4.4023   0.0000   0.0000   0.0000  -0.3036
  -7.500  -0.2238   0.01403   0.00797  -0.1325  0.7953  0.0284  -4.2043   0.0000   0.0000   0.0000  -0.3696
  -7.250  -0.1961   0.01368   0.00757  -0.1327  0.7927  0.0293  -4.0102   0.0000   0.0000   0.0000  -0.4567
  -7.000  -0.1681   0.01331   0.00712  -0.1328  0.7898  0.0302  -3.8303   0.0000   0.0000   0.0000  -0.5736
  -6.750  -0.1407   0.01282   0.00662  -0.1330  0.7865  0.0311  -3.6517   0.0000   0.0000   0.0000  -0.7338
  -6.500  -0.1126   0.01249   0.00627  -0.1332  0.7836  0.0321  -3.4687   0.0000   0.0000   0.0000  -0.9783
  -6.250  -0.0842   0.01222   0.00590  -0.1334  0.7810  0.0334  -3.3000   0.0000   0.0000   0.0000  -1.3917
  -6.000  -0.0563   0.01183   0.00554  -0.1336  0.7778  0.0346  -3.1314   0.0000   0.0000   0.0000  -2.2031
  -5.750  -0.0278   0.01157   0.00523  -0.1338  0.7746  0.0361  -2.9681   0.0000   0.0000   0.0000  -4.7119
  -5.500   0.0004   0.01123   0.00488  -0.1340  0.7719  0.0376  -2.8062   0.0000   0.0000   0.0000  367.9186
  -5.250   0.0291   0.01103   0.00463  -0.1342  0.7691  0.0395  -2.6453   0.0000   0.0000   0.0000   5.0012
  -5.000   0.0574   0.01072   0.00435  -0.1344  0.7658  0.0415  -2.4928   0.0000   0.0000   0.0000   2.6550
  -4.750   0.0861   0.01049   0.00408  -0.1346  0.7628  0.0437  -2.3465   0.0000   0.0000   0.0000   1.8536
  -4.500   0.1150   0.01029   0.00386  -0.1349  0.7602  0.0463  -2.1993   0.0000   0.0000   0.0000   1.4517
  -4.250   0.1436   0.01005   0.00364  -0.1351  0.7568  0.0494  -2.0559   0.0000   0.0000   0.0000   1.2123
  -4.000   0.1724   0.00984   0.00343  -0.1353  0.7535  0.0530  -1.9151   0.0000   0.0000   0.0000   1.0516
  -3.750   0.2013   0.00966   0.00323  -0.1356  0.7506  0.0577  -1.7811   0.0000   0.0000   0.0000   0.9366
  -3.500   0.2302   0.00947   0.00307  -0.1358  0.7475  0.0640  -1.6517   0.0000   0.0000   0.0000   0.8507
  -3.250   0.2590   0.00928   0.00291  -0.1361  0.7439  0.0734  -1.5251   0.0000   0.0000   0.0000   0.7839
  -3.000   0.2879   0.00907   0.00275  -0.1363  0.7408  0.0888  -1.4002   0.0000   0.0000   0.0000   0.7305
  -2.750   0.3168   0.00888   0.00264  -0.1366  0.7376  0.1122  -1.2794   0.0000   0.0000   0.0000   0.6869
  -2.500   0.3455   0.00869   0.00255  -0.1369  0.7338  0.1405  -1.1644   0.0000   0.0000   0.0000   0.6508
  -2.250   0.3744   0.00853   0.00246  -0.1372  0.7304  0.1705  -1.0512   0.0000   0.0000   0.0000   0.6199
  -2.000   0.4033   0.00839   0.00241  -0.1374  0.7269  0.2001  -0.9430   0.0000   0.0000   0.0000   0.5936
  -1.750   0.4321   0.00824   0.00236  -0.1377  0.7229  0.2327  -0.8401   0.0000   0.0000   0.0000   0.5708
  -1.500   0.4610   0.00810   0.00230  -0.1380  0.7195  0.2694  -0.7881   0.0000   0.0000   0.0000   0.5507
  -1.250   0.4898   0.00795   0.00228  -0.1383  0.7155  0.3125  -0.8063   0.0000   0.0000   0.0000   0.5331
  -1.000   0.5185   0.00778   0.00225  -0.1386  0.7114  0.3652  -0.8249   0.0000   0.0000   0.0000   0.5175
  -0.750   0.5472   0.00761   0.00223  -0.1389  0.7079  0.4299  -0.8444   0.0000   0.0000   0.0000   0.5035
  -0.500   0.5756   0.00741   0.00226  -0.1391  0.7033  0.5038  -0.8643   0.0000   0.0000   0.0000   0.4910
  -0.250   0.6040   0.00726   0.00227  -0.1393  0.6994  0.5735  -0.8847   0.0000   0.0000   0.0000   0.4794
   0.000   0.6322   0.00713   0.00232  -0.1393  0.6950  0.6352  -0.9056   0.0000   0.0000   0.0000   0.4689
   0.250   0.6603   0.00705   0.00236  -0.1394  0.6904  0.6889  -0.9276   0.0000   0.0000   0.0000   0.4591
   0.500   0.6884   0.00701   0.00239  -0.1393  0.6860  0.7284  -0.9501   0.0000   0.0000   0.0000   0.4501
   0.750   0.7161   0.00696   0.00243  -0.1392  0.6810  0.7638  -0.9729   0.0000   0.0000   0.0000   0.4418
   1.000   0.7437   0.00694   0.00246  -0.1391  0.6765  0.7966  -0.9967   0.0000   0.0000   0.0000   0.4341
   1.250   0.7705   0.00689   0.00251  -0.1388  0.6711  0.8310  -1.0211   0.0000   0.0000   0.0000   0.4268
   1.750   0.8201   0.00678   0.00258  -0.1371  0.6605  0.9128  -1.0691   0.0000   0.0000   0.0000   0.4132
   2.000   0.8521   0.00671   0.00254  -0.1378  0.6550  1.0000  -1.0995   0.0000   0.0000   0.0000   0.4074
   2.250   0.8807   0.00678   0.00258  -0.1380  0.6491  1.0000  -1.1283   0.0000   0.0000   0.0000   0.4021
   2.500   0.9092   0.00685   0.00263  -0.1382  0.6427  1.0000  -1.1575   0.0000   0.0000   0.0000   0.3971
   2.750   0.9374   0.00695   0.00267  -0.1384  0.6366  1.0000  -1.1881   0.0000   0.0000   0.0000   0.3923
   3.000   0.9655   0.00703   0.00274  -0.1385  0.6296  1.0000  -1.2199   0.0000   0.0000   0.0000   0.3878
   3.250   0.9934   0.00712   0.00281  -0.1386  0.6223  1.0000  -1.2520   0.0000   0.0000   0.0000   0.3836
   3.500   1.0211   0.00723   0.00288  -0.1386  0.6148  1.0000  -1.2861   0.0000   0.0000   0.0000   0.3795
   3.750   1.0485   0.00734   0.00297  -0.1386  0.6069  1.0000  -1.3226   0.0000   0.0000   0.0000   0.3756
   4.000   1.0756   0.00747   0.00306  -0.1386  0.5979  1.0000  -1.3593   0.0000   0.0000   0.0000   0.3719
   4.250   1.1026   0.00760   0.00317  -0.1385  0.5883  1.0000  -1.3995   0.0000   0.0000   0.0000   0.3684
   4.500   1.1292   0.00775   0.00328  -0.1383  0.5783  1.0000  -1.4407   0.0000   0.0000   0.0000   0.3650
   4.750   1.1554   0.00791   0.00342  -0.1381  0.5675  1.0000  -1.4828   0.0000   0.0000   0.0000   0.3617
   5.000   1.1814   0.00809   0.00356  -0.1379  0.5556  1.0000  -1.5288   0.0000   0.0000   0.0000   0.3585
   5.250   1.2070   0.00828   0.00372  -0.1376  0.5431  1.0000  -1.5759   0.0000   0.0000   0.0000   0.3554
   5.500   1.2318   0.00850   0.00390  -0.1371  0.5296  1.0000  -1.6259   0.0000   0.0000   0.0000   0.3524
   5.750   1.2561   0.00876   0.00410  -0.1366  0.5148  1.0000  -1.6801   0.0000   0.0000   0.0000   0.3495
   6.000   1.2796   0.00904   0.00433  -0.1360  0.4989  1.0000  -1.7427   0.0000   0.0000   0.0000   0.3466
   6.250   1.3026   0.00935   0.00458  -0.1352  0.4822  1.0000  -1.8129   0.0000   0.0000   0.0000   0.3439
   6.500   1.3243   0.00971   0.00486  -0.1343  0.4643  1.0000  -1.8867   0.0000   0.0000   0.0000   0.3411
   6.750   1.3449   0.01010   0.00518  -0.1332  0.4456  1.0000  -1.9624   0.0000   0.0000   0.0000   0.3383
   7.000   1.3646   0.01054   0.00553  -0.1319  0.4264  1.0000  -2.0417   0.0000   0.0000   0.0000   0.3356
   7.250   1.3838   0.01098   0.00589  -0.1306  0.4075  1.0000  -2.1220   0.0000   0.0000   0.0000   0.3329
   7.500   1.4014   0.01144   0.00628  -0.1290  0.3889  1.0000  -2.2029   0.0000   0.0000   0.0000   0.3302
   7.750   1.4168   0.01194   0.00671  -0.1270  0.3712  1.0000  -2.2806   0.0000   0.0000   0.0000   0.3274
   8.000   1.4320   0.01249   0.00719  -0.1251  0.3545  1.0000  -2.3592   0.0000   0.0000   0.0000   0.3248
   8.250   1.4473   0.01306   0.00770  -0.1233  0.3380  1.0000  -2.4669   0.0000   0.0000   0.0000   0.3222
   8.500   1.4620   0.01369   0.00827  -0.1215  0.3219  1.0000  -2.5744   0.0000   0.0000   0.0000   0.3197
   8.750   1.4754   0.01441   0.00892  -0.1195  0.3055  1.0000  -2.6800   0.0000   0.0000   0.0000   0.3172
   9.000   1.4891   0.01516   0.00961  -0.1177  0.2885  1.0000  -2.7875   0.0000   0.0000   0.0000   0.3148
   9.250   1.5017   0.01599   0.01038  -0.1159  0.2716  1.0000  -2.8939   0.0000   0.0000   0.0000   0.3125
   9.500   1.5134   0.01691   0.01123  -0.1140  0.2550  1.0000  -3.0024   0.0000   0.0000   0.0000   0.3102
   9.750   1.5248   0.01788   0.01212  -0.1121  0.2385  1.0000  -3.1113   0.0000   0.0000   0.0000   0.3080
  10.000   1.5360   0.01888   0.01307  -0.1103  0.2224  1.0000  -3.2206   0.0000   0.0000   0.0000   0.3058
  10.250   1.5462   0.01998   0.01409  -0.1084  0.2071  1.0000  -3.3282   0.0000   0.0000   0.0000   0.3037
  10.500   1.5562   0.02110   0.01516  -0.1066  0.1924  1.0000  -3.4365   0.0000   0.0000   0.0000   0.3016
  10.750   1.5657   0.02229   0.01629  -0.1048  0.1781  1.0000  -3.5439   0.0000   0.0000   0.0000   0.2996
  11.000   1.5738   0.02359   0.01753  -0.1029  0.1641  1.0000  -3.6483   0.0000   0.0000   0.0000   0.2976
  11.250   1.5822   0.02489   0.01878  -0.1011  0.1508  1.0000  -3.7546   0.0000   0.0000   0.0000   0.2956
  11.500   1.5893   0.02630   0.02013  -0.0992  0.1383  1.0000  -3.8574   0.0000   0.0000   0.0000   0.2937
  11.750   1.5970   0.02769   0.02149  -0.0975  0.1270  1.0000  -3.9630   0.0000   0.0000   0.0000   0.2918
  12.000   1.6040   0.02915   0.02292  -0.0957  0.1165  1.0000  -4.0672   0.0000   0.0000   0.0000   0.2900
  12.250   1.6103   0.03070   0.02443  -0.0940  0.1069  1.0000  -4.1697   0.0000   0.0000   0.0000   0.2882
  12.500   1.6163   0.03229   0.02600  -0.0923  0.0983  1.0000  -4.2717   0.0000   0.0000   0.0000   0.2864
  12.750   1.6227   0.03389   0.02759  -0.0907  0.0904  1.0000  -4.3782   0.0000   0.0000   0.0000   0.2847
  13.000   1.6287   0.03557   0.02926  -0.0892  0.0833  1.0000  -4.4853   0.0000   0.0000   0.0000   0.2830
  13.250   1.6344   0.03731   0.03100  -0.0877  0.0771  1.0000  -4.5918   0.0000   0.0000   0.0000   0.2814
  13.500   1.6396   0.03913   0.03283  -0.0863  0.0716  1.0000  -4.6975   0.0000   0.0000   0.0000   0.2799
  13.750   1.6448   0.04100   0.03470  -0.0850  0.0666  1.0000  -4.8033   0.0000   0.0000   0.0000   0.2784
  14.000   1.6504   0.04286   0.03660  -0.0838  0.0622  1.0000  -4.9114   0.0000   0.0000   0.0000   0.2769
  14.250   1.6555   0.04482   0.03858  -0.0826  0.0584  1.0000  -5.0179   0.0000   0.0000   0.0000   0.2755
  14.500   1.6595   0.04691   0.04069  -0.0814  0.0550  1.0000  -5.1206   0.0000   0.0000   0.0000   0.2741
  14.750   1.6636   0.04904   0.04285  -0.0804  0.0518  1.0000  -5.2241   0.0000   0.0000   0.0000   0.2728
  15.000   1.6681   0.05117   0.04503  -0.0794  0.0490  1.0000  -5.3289   0.0000   0.0000   0.0000   0.2716
  15.250   1.6701   0.05357   0.04747  -0.0784  0.0465  1.0000  -5.4248   0.0000   0.0000   0.0000   0.2703
  15.500   1.6741   0.05583   0.04978  -0.0776  0.0440  1.0000  -5.5377   0.0000   0.0000   0.0000   0.2692
  15.750   1.6761   0.05834   0.05233  -0.0768  0.0417  1.0000  -5.6568   0.0000   0.0000   0.0000   0.2680
  16.000   1.6774   0.06095   0.05499  -0.0760  0.0395  1.0000  -5.7742   0.0000   0.0000   0.0000   0.2670
  16.250   1.6789   0.06359   0.05769  -0.0753  0.0374  1.0000  -5.8922   0.0000   0.0000   0.0000   0.2659
  16.750   1.6784   0.06940   0.06361  -0.0742  0.0334  1.0000  -6.1118   0.0000   0.0000   0.0000   0.2641
  17.000   1.6758   0.07265   0.06691  -0.0738  0.0318  1.0000  -6.2099   0.0000   0.0000   0.0000   0.2633
  17.250   1.6746   0.07579   0.07013  -0.0735  0.0301  1.0000  -6.3142   0.0000   0.0000   0.0000   0.2625
  17.500   1.6705   0.07932   0.07372  -0.0733  0.0288  1.0000  -6.4032   0.0000   0.0000   0.0000   0.2619
  17.750   1.6682   0.08270   0.07718  -0.0732  0.0275  1.0000  -6.5004   0.0000   0.0000   0.0000   0.2613
  18.000   1.6616   0.08668   0.08122  -0.0732  0.0266  1.0000  -6.5748   0.0000   0.0000   0.0000   0.2608
  18.250   1.6587   0.09022   0.08485  -0.0734  0.0256  1.0000  -6.6671   0.0000   0.0000   0.0000   0.2604
  18.500   1.6541   0.09402   0.08873  -0.0737  0.0248  1.0000  -6.7508   0.0000   0.0000   0.0000   0.2600
  18.750   1.6463   0.09834   0.09312  -0.0742  0.0241  1.0000  -6.8143   0.0000   0.0000   0.0000   0.2599
  19.000   1.6417   0.10225   0.09712  -0.0748  0.0235  1.0000  -6.8951   0.0000   0.0000   0.0000   0.2597
  19.250   1.6376   0.10611   0.10108  -0.0755  0.0228  1.0000  -6.9807   0.0000   0.0000   0.0000   0.2596
  19.500   1.6317   0.11029   0.10533  -0.0764  0.0222  1.0000  -7.0547   0.0000   0.0000   0.0000   0.2597
  19.750   1.6231   0.11492   0.11003  -0.0776  0.0218  1.0000  -7.1093   0.0000   0.0000   0.0000   0.2600
  20.000   1.6186   0.11898   0.11418  -0.0788  0.0213  1.0000  -7.1859   0.0000   0.0000   0.0000   0.2602


