xflr5 v6.61

 Calculated polar for: QX0226

 1 1 Reynolds number fixed          Mach number fixed         

 xtrf =   1.000 (top)        1.000 (bottom)
 Mach =   0.000     Re =     0.460 e 6     Ncrit =   9.000

  alpha     CL        CD       CDp       Cm    Top Xtr Bot Xtr   Cpmin    Chinge    XCp    
 ------- -------- --------- --------- -------- ------- ------- -------- --------- ---------
 -10.000  -0.3522   0.05112   0.04812  -0.1090  0.8595  0.0283  -4.4210   0.0000   0.0000   0.0000  -0.0839
  -9.750  -0.3393   0.04829   0.04525  -0.1135  0.8554  0.0287  -4.3049   0.0000   0.0000   0.0000  -0.1088
  -9.500  -0.2865   0.05910   0.05617  -0.1015  0.8527  0.0307  -3.5988   0.0000   0.0000   0.0000  -0.1309
  -9.250  -0.2798   0.05535   0.05241  -0.1057  0.8480  0.0310  -3.5574   0.0000   0.0000   0.0000  -0.1541
  -9.000  -0.2669   0.05337   0.05042  -0.1090  0.8441  0.0318  -3.4301   0.0000   0.0000   0.0000  -0.1847
  -8.750  -0.2435   0.05411   0.05117  -0.1100  0.8399  0.0343  -3.1669   0.0000   0.0000   0.0000  -0.2289
  -8.500  -0.2317   0.04864   0.04556  -0.1198  0.8357  0.0381  -3.1373   0.0000   0.0000   0.0000  -0.2940
  -8.250  -0.2252   0.04392   0.04064  -0.1256  0.8315  0.0414  -3.1434   0.0000   0.0000   0.0000  -0.3346
  -8.000  -0.2670   0.01962   0.01355  -0.1343  0.8259  0.0317  -4.3436   0.0000   0.0000   0.0000  -0.2779
  -7.750  -0.2409   0.01879   0.01252  -0.1343  0.8233  0.0326  -4.1793   0.0000   0.0000   0.0000  -0.3343
  -7.500  -0.2149   0.01789   0.01143  -0.1344  0.8195  0.0335  -4.0236   0.0000   0.0000   0.0000  -0.4043
  -7.250  -0.1881   0.01728   0.01083  -0.1345  0.8163  0.0344  -3.8358   0.0000   0.0000   0.0000  -0.4966
  -7.000  -0.1610   0.01668   0.01012  -0.1346  0.8136  0.0354  -3.6677   0.0000   0.0000   0.0000  -0.6215
  -6.750  -0.1339   0.01604   0.00933  -0.1347  0.8104  0.0365  -3.5176   0.0000   0.0000   0.0000  -0.7964
  -6.500  -0.1068   0.01552   0.00885  -0.1348  0.8070  0.0377  -3.3439   0.0000   0.0000   0.0000  -1.0603
  -6.250  -0.0791   0.01507   0.00830  -0.1349  0.8041  0.0392  -3.1827   0.0000   0.0000   0.0000  -1.5185
  -6.000  -0.0516   0.01452   0.00772  -0.1350  0.8015  0.0405  -3.0311   0.0000   0.0000   0.0000  -2.4558
  -5.750  -0.0241   0.01414   0.00733  -0.1351  0.7978  0.0422  -2.8782   0.0000   0.0000   0.0000  -5.5453
  -5.500   0.0036   0.01370   0.00685  -0.1352  0.7947  0.0441  -2.7298   0.0000   0.0000   0.0000  38.7397
  -5.250   0.0319   0.01336   0.00648  -0.1354  0.7921  0.0462  -2.5773   0.0000   0.0000   0.0000   4.6209
  -5.000   0.0595   0.01297   0.00610  -0.1355  0.7887  0.0484  -2.4337   0.0000   0.0000   0.0000   2.5899
  -4.750   0.0878   0.01272   0.00580  -0.1356  0.7853  0.0512  -2.2956   0.0000   0.0000   0.0000   1.8358
  -4.500   0.1160   0.01235   0.00545  -0.1358  0.7825  0.0543  -2.1565   0.0000   0.0000   0.0000   1.4500
  -4.250   0.1443   0.01206   0.00515  -0.1360  0.7796  0.0579  -2.0206   0.0000   0.0000   0.0000   1.2141
  -4.000   0.1725   0.01179   0.00490  -0.1362  0.7759  0.0623  -1.8872   0.0000   0.0000   0.0000   1.0566
  -3.750   0.2011   0.01153   0.00463  -0.1364  0.7728  0.0680  -1.7587   0.0000   0.0000   0.0000   0.9419
  -3.250   0.2581   0.01103   0.00421  -0.1368  0.7663  0.0877  -1.5134   0.0000   0.0000   0.0000   0.7890
  -3.000   0.2867   0.01077   0.00401  -0.1370  0.7629  0.1078  -1.3929   0.0000   0.0000   0.0000   0.7353
  -2.750   0.3157   0.01051   0.00384  -0.1373  0.7602  0.1386  -1.2750   0.0000   0.0000   0.0000   0.6910
  -2.500   0.3438   0.01031   0.00378  -0.1376  0.7562  0.1736  -1.1628   0.0000   0.0000   0.0000   0.6549
  -2.250   0.3724   0.01012   0.00368  -0.1378  0.7527  0.2082  -1.0511   0.0000   0.0000   0.0000   0.6238
  -2.000   0.4016   0.00995   0.00358  -0.1381  0.7498  0.2461  -0.9436   0.0000   0.0000   0.0000   0.5969
  -1.750   0.4297   0.00978   0.00355  -0.1383  0.7455  0.2871  -0.8427   0.0000   0.0000   0.0000   0.5741
  -1.500   0.4583   0.00958   0.00350  -0.1386  0.7418  0.3383  -0.7838   0.0000   0.0000   0.0000   0.5540
  -1.250   0.4872   0.00938   0.00344  -0.1389  0.7387  0.4004  -0.8023   0.0000   0.0000   0.0000   0.5360
  -1.000   0.5148   0.00915   0.00347  -0.1390  0.7341  0.4741  -0.8202   0.0000   0.0000   0.0000   0.5204
  -0.750   0.5432   0.00894   0.00345  -0.1391  0.7305  0.5542  -0.8398   0.0000   0.0000   0.0000   0.5061
  -0.500   0.5708   0.00878   0.00350  -0.1391  0.7266  0.6244  -0.8595   0.0000   0.0000   0.0000   0.4931
  -0.250   0.5982   0.00867   0.00354  -0.1389  0.7222  0.6864  -0.8793   0.0000   0.0000   0.0000   0.4812
   0.000   0.6262   0.00859   0.00353  -0.1387  0.7187  0.7334  -0.9003   0.0000   0.0000   0.0000   0.4702
   0.250   0.6525   0.00853   0.00359  -0.1383  0.7137  0.7734  -0.9212   0.0000   0.0000   0.0000   0.4602
   0.500   0.6793   0.00845   0.00358  -0.1379  0.7097  0.8110  -0.9431   0.0000   0.0000   0.0000   0.4508
   0.750   0.7047   0.00839   0.00362  -0.1371  0.7050  0.8487  -0.9645   0.0000   0.0000   0.0000   0.4421
   1.000   0.7285   0.00830   0.00360  -0.1359  0.7003  0.8906  -0.9862   0.0000   0.0000   0.0000   0.4337
   1.250   0.7537   0.00821   0.00357  -0.1350  0.6957  0.9465  -1.0095   0.0000   0.0000   0.0000   0.4259
   1.500   0.7901   0.00817   0.00351  -0.1368  0.6905  1.0000  -1.0398   0.0000   0.0000   0.0000   0.4196
   1.750   0.8189   0.00823   0.00351  -0.1371  0.6856  1.0000  -1.0666   0.0000   0.0000   0.0000   0.4135
   2.000   0.8476   0.00828   0.00352  -0.1373  0.6800  1.0000  -1.0947   0.0000   0.0000   0.0000   0.4078
   2.250   0.8759   0.00835   0.00356  -0.1375  0.6745  1.0000  -1.1232   0.0000   0.0000   0.0000   0.4024
   2.500   0.9044   0.00841   0.00357  -0.1377  0.6690  1.0000  -1.1525   0.0000   0.0000   0.0000   0.3973
   2.750   0.9322   0.00848   0.00363  -0.1377  0.6626  1.0000  -1.1826   0.0000   0.0000   0.0000   0.3925
   3.000   0.9605   0.00855   0.00366  -0.1379  0.6567  1.0000  -1.2145   0.0000   0.0000   0.0000   0.3880
   3.250   0.9880   0.00863   0.00372  -0.1378  0.6498  1.0000  -1.2463   0.0000   0.0000   0.0000   0.3837
   3.500   1.0155   0.00872   0.00380  -0.1378  0.6428  1.0000  -1.2800   0.0000   0.0000   0.0000   0.3796
   3.750   1.0430   0.00881   0.00386  -0.1378  0.6358  1.0000  -1.3164   0.0000   0.0000   0.0000   0.3756
   4.000   1.0701   0.00891   0.00393  -0.1377  0.6282  1.0000  -1.3532   0.0000   0.0000   0.0000   0.3719
   4.250   1.0968   0.00902   0.00404  -0.1376  0.6196  1.0000  -1.3927   0.0000   0.0000   0.0000   0.3683
   4.500   1.1233   0.00914   0.00415  -0.1374  0.6106  1.0000  -1.4336   0.0000   0.0000   0.0000   0.3648
   4.750   1.1495   0.00927   0.00426  -0.1371  0.6010  1.0000  -1.4756   0.0000   0.0000   0.0000   0.3615
   5.000   1.1754   0.00942   0.00439  -0.1369  0.5910  1.0000  -1.5209   0.0000   0.0000   0.0000   0.3583
   5.250   1.2009   0.00958   0.00454  -0.1365  0.5803  1.0000  -1.5679   0.0000   0.0000   0.0000   0.3551
   5.500   1.2258   0.00977   0.00469  -0.1360  0.5688  1.0000  -1.6173   0.0000   0.0000   0.0000   0.3521
   5.750   1.2503   0.00998   0.00488  -0.1355  0.5568  1.0000  -1.6715   0.0000   0.0000   0.0000   0.3492
   6.250   1.2972   0.01046   0.00531  -0.1341  0.5291  1.0000  -1.8021   0.0000   0.0000   0.0000   0.3435
   6.500   1.3195   0.01075   0.00556  -0.1333  0.5139  1.0000  -1.8767   0.0000   0.0000   0.0000   0.3407
   6.750   1.3405   0.01110   0.00585  -0.1322  0.4977  1.0000  -1.9520   0.0000   0.0000   0.0000   0.3379
   7.000   1.3606   0.01147   0.00617  -0.1310  0.4801  1.0000  -2.0304   0.0000   0.0000   0.0000   0.3352
   7.250   1.3792   0.01189   0.00653  -0.1295  0.4619  1.0000  -2.1094   0.0000   0.0000   0.0000   0.3325
   7.500   1.3963   0.01237   0.00693  -0.1278  0.4434  1.0000  -2.1878   0.0000   0.0000   0.0000   0.3297
   7.750   1.4105   0.01289   0.00738  -0.1256  0.4256  1.0000  -2.2632   0.0000   0.0000   0.0000   0.3268
   8.000   1.4241   0.01344   0.00788  -0.1233  0.4077  1.0000  -2.3383   0.0000   0.0000   0.0000   0.3240
   8.250   1.4375   0.01406   0.00844  -0.1212  0.3900  1.0000  -2.4336   0.0000   0.0000   0.0000   0.3213
   8.500   1.4502   0.01475   0.00907  -0.1190  0.3732  1.0000  -2.5354   0.0000   0.0000   0.0000   0.3187
   8.750   1.4626   0.01550   0.00977  -0.1170  0.3567  1.0000  -2.6376   0.0000   0.0000   0.0000   0.3162
   9.000   1.4752   0.01629   0.01051  -0.1150  0.3404  1.0000  -2.7413   0.0000   0.0000   0.0000   0.3137
   9.250   1.4865   0.01718   0.01135  -0.1130  0.3245  1.0000  -2.8429   0.0000   0.0000   0.0000   0.3114
   9.500   1.4980   0.01810   0.01222  -0.1111  0.3083  1.0000  -2.9464   0.0000   0.0000   0.0000   0.3091
   9.750   1.5087   0.01910   0.01318  -0.1092  0.2924  1.0000  -3.0518   0.0000   0.0000   0.0000   0.3068
  10.250   1.5278   0.02135   0.01532  -0.1053  0.2597  1.0000  -3.2600   0.0000   0.0000   0.0000   0.3025
  10.500   1.5363   0.02259   0.01650  -0.1034  0.2435  1.0000  -3.3623   0.0000   0.0000   0.0000   0.3004
  10.750   1.5435   0.02394   0.01779  -0.1014  0.2276  1.0000  -3.4619   0.0000   0.0000   0.0000   0.2984
  11.000   1.5515   0.02528   0.01908  -0.0996  0.2117  1.0000  -3.5642   0.0000   0.0000   0.0000   0.2964
  11.250   1.5582   0.02672   0.02047  -0.0977  0.1968  1.0000  -3.6639   0.0000   0.0000   0.0000   0.2944
  11.500   1.5640   0.02826   0.02195  -0.0958  0.1822  1.0000  -3.7611   0.0000   0.0000   0.0000   0.2925
  11.750   1.5699   0.02982   0.02347  -0.0940  0.1680  1.0000  -3.8595   0.0000   0.0000   0.0000   0.2906
  12.250   1.5800   0.03316   0.02673  -0.0904  0.1428  1.0000  -4.0518   0.0000   0.0000   0.0000   0.2870
  12.500   1.5845   0.03492   0.02847  -0.0888  0.1315  1.0000  -4.1471   0.0000   0.0000   0.0000   0.2853
  12.750   1.5882   0.03681   0.03032  -0.0871  0.1212  1.0000  -4.2400   0.0000   0.0000   0.0000   0.2836
  13.000   1.5929   0.03866   0.03217  -0.0856  0.1113  1.0000  -4.3390   0.0000   0.0000   0.0000   0.2820
  13.250   1.5967   0.04064   0.03413  -0.0841  0.1024  1.0000  -4.4363   0.0000   0.0000   0.0000   0.2804
  13.500   1.6001   0.04270   0.03619  -0.0827  0.0944  1.0000  -4.5323   0.0000   0.0000   0.0000   0.2789
  13.750   1.6032   0.04483   0.03833  -0.0814  0.0874  1.0000  -4.6277   0.0000   0.0000   0.0000   0.2774
  14.000   1.6061   0.04704   0.04054  -0.0802  0.0813  1.0000  -4.7223   0.0000   0.0000   0.0000   0.2760
  14.250   1.6085   0.04934   0.04286  -0.0790  0.0761  1.0000  -4.8152   0.0000   0.0000   0.0000   0.2747
  14.500   1.6099   0.05178   0.04533  -0.0779  0.0715  1.0000  -4.9045   0.0000   0.0000   0.0000   0.2734
  14.750   1.6121   0.05420   0.04779  -0.0769  0.0672  1.0000  -4.9966   0.0000   0.0000   0.0000   0.2722
  15.000   1.6144   0.05667   0.05030  -0.0761  0.0634  1.0000  -5.0884   0.0000   0.0000   0.0000   0.2710
  15.250   1.6143   0.05942   0.05309  -0.0752  0.0602  1.0000  -5.1717   0.0000   0.0000   0.0000   0.2699
  15.500   1.6155   0.06209   0.05581  -0.0745  0.0569  1.0000  -5.2600   0.0000   0.0000   0.0000   0.2689
  15.750   1.6158   0.06492   0.05870  -0.0738  0.0541  1.0000  -5.3488   0.0000   0.0000   0.0000   0.2679
  16.000   1.6140   0.06802   0.06184  -0.0733  0.0515  1.0000  -5.4426   0.0000   0.0000   0.0000   0.2670
  16.250   1.6143   0.07093   0.06483  -0.0728  0.0489  1.0000  -5.5448   0.0000   0.0000   0.0000   0.2661
  16.500   1.6102   0.07442   0.06837  -0.0724  0.0468  1.0000  -5.6299   0.0000   0.0000   0.0000   0.2654
  16.750   1.6103   0.07746   0.07149  -0.0722  0.0444  1.0000  -5.7340   0.0000   0.0000   0.0000   0.2647
  17.000   1.6041   0.08132   0.07539  -0.0721  0.0427  1.0000  -5.8074   0.0000   0.0000   0.0000   0.2641
  17.250   1.6034   0.08454   0.07872  -0.0720  0.0405  1.0000  -5.9063   0.0000   0.0000   0.0000   0.2635
  17.500   1.5964   0.08865   0.08287  -0.0722  0.0390  1.0000  -5.9728   0.0000   0.0000   0.0000   0.2632
  17.750   1.5942   0.09215   0.08647  -0.0724  0.0371  1.0000  -6.0620   0.0000   0.0000   0.0000   0.2628
  18.000   1.5877   0.09629   0.09067  -0.0728  0.0358  1.0000  -6.1291   0.0000   0.0000   0.0000   0.2626
  18.250   1.5832   0.10020   0.09468  -0.0733  0.0343  1.0000  -6.2027   0.0000   0.0000   0.0000   0.2624
  18.500   1.5787   0.10415   0.09870  -0.0739  0.0331  1.0000  -6.2768   0.0000   0.0000   0.0000   0.2623
  18.750   1.5703   0.10869   0.10327  -0.0749  0.0322  1.0000  -6.3275   0.0000   0.0000   0.0000   0.2625
  19.000   1.5679   0.11241   0.10712  -0.0757  0.0311  1.0000  -6.4075   0.0000   0.0000   0.0000   0.2625
  19.250   1.5640   0.11637   0.11115  -0.0768  0.0302  1.0000  -6.4797   0.0000   0.0000   0.0000   0.2627
  19.500   1.5585   0.12057   0.11540  -0.0780  0.0295  1.0000  -6.5417   0.0000   0.0000   0.0000   0.2630
  19.750   1.5553   0.12447   0.11939  -0.0793  0.0287  1.0000  -6.6124   0.0000   0.0000   0.0000   0.2632
  20.000   1.5532   0.12824   0.12324  -0.0807  0.0279  1.0000  -6.6931   0.0000   0.0000   0.0000   0.2635


