xflr5 v6.61

 Calculated polar for: QX0226

 1 1 Reynolds number fixed          Mach number fixed         

 xtrf =   1.000 (top)        1.000 (bottom)
 Mach =   0.000     Re =     0.820 e 6     Ncrit =   9.000

  alpha     CL        CD       CDp       Cm    Top Xtr Bot Xtr   Cpmin    Chinge    XCp    
 ------- -------- --------- --------- -------- ------- ------- -------- --------- ---------
 -10.000  -0.4932   0.01855   0.01334  -0.1305  0.8195  0.0217  -6.4041   0.0000   0.0000   0.0000  -0.0339
  -9.750  -0.4673   0.01795   0.01264  -0.1307  0.8162  0.0222  -6.1721   0.0000   0.0000   0.0000  -0.0491
  -9.500  -0.4415   0.01729   0.01181  -0.1309  0.8134  0.0227  -5.9550   0.0000   0.0000   0.0000  -0.0661
  -9.250  -0.4157   0.01654   0.01095  -0.1310  0.8102  0.0231  -5.7422   0.0000   0.0000   0.0000  -0.0853
  -9.000  -0.3894   0.01596   0.01036  -0.1312  0.8069  0.0236  -5.5120   0.0000   0.0000   0.0000  -0.1075
  -8.750  -0.3624   0.01553   0.00988  -0.1314  0.8040  0.0241  -5.2808   0.0000   0.0000   0.0000  -0.1337
  -8.500  -0.3352   0.01508   0.00934  -0.1315  0.8012  0.0247  -5.0596   0.0000   0.0000   0.0000  -0.1642
  -8.250  -0.3077   0.01464   0.00878  -0.1317  0.7980  0.0253  -4.8556   0.0000   0.0000   0.0000  -0.2008
  -8.000  -0.2811   0.01402   0.00816  -0.1318  0.7949  0.0259  -4.6516   0.0000   0.0000   0.0000  -0.2430
  -7.750  -0.2536   0.01364   0.00775  -0.1320  0.7923  0.0265  -4.4428   0.0000   0.0000   0.0000  -0.2961
  -7.500  -0.2257   0.01328   0.00732  -0.1322  0.7893  0.0273  -4.2418   0.0000   0.0000   0.0000  -0.3631
  -7.250  -0.1980   0.01284   0.00682  -0.1324  0.7861  0.0281  -4.0564   0.0000   0.0000   0.0000  -0.4482
  -7.000  -0.1702   0.01248   0.00646  -0.1326  0.7833  0.0289  -3.8638   0.0000   0.0000   0.0000  -0.5621
  -6.750  -0.1420   0.01219   0.00609  -0.1327  0.7807  0.0299  -3.6788   0.0000   0.0000   0.0000  -0.7228
  -6.500  -0.1139   0.01180   0.00568  -0.1329  0.7775  0.0309  -3.5000   0.0000   0.0000   0.0000  -0.9615
  -6.250  -0.0857   0.01150   0.00538  -0.1332  0.7744  0.0320  -3.3243   0.0000   0.0000   0.0000  -1.3608
  -6.000  -0.0570   0.01129   0.00509  -0.1333  0.7717  0.0333  -3.1553   0.0000   0.0000   0.0000  -2.1695
  -5.750  -0.0288   0.01094   0.00475  -0.1336  0.7689  0.0346  -2.9878   0.0000   0.0000   0.0000  -4.5323
  -5.500  -0.0001   0.01072   0.00450  -0.1338  0.7657  0.0362  -2.8234   0.0000   0.0000   0.0000  -956.4878
  -5.250   0.0283   0.01043   0.00420  -0.1340  0.7627  0.0378  -2.6607   0.0000   0.0000   0.0000   5.1201
  -5.000   0.0572   0.01025   0.00397  -0.1342  0.7601  0.0398  -2.5075   0.0000   0.0000   0.0000   2.6623
  -4.750   0.0858   0.01000   0.00375  -0.1345  0.7569  0.0420  -2.3567   0.0000   0.0000   0.0000   1.8577
  -4.500   0.1146   0.00978   0.00351  -0.1347  0.7537  0.0444  -2.2101   0.0000   0.0000   0.0000   1.4541
  -4.250   0.1436   0.00962   0.00332  -0.1350  0.7509  0.0473  -2.0643   0.0000   0.0000   0.0000   1.2113
  -4.000   0.1724   0.00943   0.00314  -0.1352  0.7478  0.0508  -1.9213   0.0000   0.0000   0.0000   1.0505
  -3.750   0.2013   0.00924   0.00297  -0.1355  0.7444  0.0552  -1.7864   0.0000   0.0000   0.0000   0.9359
  -3.500   0.2303   0.00907   0.00279  -0.1357  0.7412  0.0611  -1.6560   0.0000   0.0000   0.0000   0.8497
  -3.250   0.2592   0.00889   0.00264  -0.1360  0.7383  0.0699  -1.5278   0.0000   0.0000   0.0000   0.7830
  -3.000   0.2881   0.00870   0.00252  -0.1362  0.7346  0.0841  -1.4023   0.0000   0.0000   0.0000   0.7297
  -2.750   0.3170   0.00850   0.00239  -0.1365  0.7312  0.1054  -1.2806   0.0000   0.0000   0.0000   0.6862
  -2.500   0.3459   0.00834   0.00230  -0.1368  0.7280  0.1319  -1.1648   0.0000   0.0000   0.0000   0.6499
  -2.250   0.3748   0.00817   0.00224  -0.1371  0.7241  0.1602  -1.0516   0.0000   0.0000   0.0000   0.6193
  -2.000   0.4037   0.00804   0.00217  -0.1373  0.7206  0.1890  -0.9429   0.0000   0.0000   0.0000   0.5929
  -1.750   0.4327   0.00791   0.00212  -0.1376  0.7171  0.2188  -0.8396   0.0000   0.0000   0.0000   0.5701
  -1.500   0.4615   0.00777   0.00208  -0.1379  0.7129  0.2538  -0.7888   0.0000   0.0000   0.0000   0.5502
  -1.250   0.4904   0.00764   0.00204  -0.1382  0.7093  0.2914  -0.8072   0.0000   0.0000   0.0000   0.5326
  -1.000   0.5192   0.00749   0.00203  -0.1385  0.7053  0.3400  -0.8257   0.0000   0.0000   0.0000   0.5170
  -0.750   0.5479   0.00732   0.00201  -0.1388  0.7011  0.3976  -0.8451   0.0000   0.0000   0.0000   0.5030
  -0.500   0.5766   0.00715   0.00201  -0.1391  0.6973  0.4661  -0.8653   0.0000   0.0000   0.0000   0.4905
  -0.250   0.6051   0.00697   0.00204  -0.1393  0.6927  0.5406  -0.8856   0.0000   0.0000   0.0000   0.4791
   0.000   0.6335   0.00686   0.00206  -0.1395  0.6886  0.6009  -0.9067   0.0000   0.0000   0.0000   0.4686
   0.250   0.6618   0.00675   0.00212  -0.1395  0.6838  0.6611  -0.9288   0.0000   0.0000   0.0000   0.4589
   0.500   0.6900   0.00670   0.00215  -0.1396  0.6793  0.7048  -0.9514   0.0000   0.0000   0.0000   0.4500
   0.750   0.7181   0.00666   0.00220  -0.1396  0.6744  0.7405  -0.9743   0.0000   0.0000   0.0000   0.4417
   1.000   0.7460   0.00663   0.00223  -0.1395  0.6695  0.7737  -0.9984   0.0000   0.0000   0.0000   0.4340
   1.250   0.7735   0.00660   0.00228  -0.1394  0.6642  0.8052  -1.0232   0.0000   0.0000   0.0000   0.4269
   1.500   0.8004   0.00658   0.00232  -0.1391  0.6590  0.8394  -1.0479   0.0000   0.0000   0.0000   0.4201
   1.750   0.8262   0.00653   0.00238  -0.1385  0.6534  0.8759  -1.0731   0.0000   0.0000   0.0000   0.4137
   2.000   0.8494   0.00648   0.00240  -0.1373  0.6480  0.9269  -1.0980   0.0000   0.0000   0.0000   0.4073
   2.250   0.8821   0.00644   0.00239  -0.1383  0.6415  1.0000  -1.1295   0.0000   0.0000   0.0000   0.4021
   2.500   0.9106   0.00652   0.00244  -0.1385  0.6354  1.0000  -1.1588   0.0000   0.0000   0.0000   0.3971
   2.750   0.9388   0.00661   0.00249  -0.1386  0.6288  1.0000  -1.1894   0.0000   0.0000   0.0000   0.3924
   3.000   0.9671   0.00669   0.00256  -0.1388  0.6216  1.0000  -1.2213   0.0000   0.0000   0.0000   0.3879
   3.250   0.9950   0.00679   0.00263  -0.1389  0.6143  1.0000  -1.2535   0.0000   0.0000   0.0000   0.3836
   3.500   1.0226   0.00691   0.00270  -0.1389  0.6066  1.0000  -1.2876   0.0000   0.0000   0.0000   0.3796
   3.750   1.0501   0.00703   0.00279  -0.1389  0.5980  1.0000  -1.3242   0.0000   0.0000   0.0000   0.3757
   4.000   1.0773   0.00715   0.00289  -0.1389  0.5885  1.0000  -1.3610   0.0000   0.0000   0.0000   0.3720
   4.250   1.1043   0.00729   0.00300  -0.1388  0.5786  1.0000  -1.4012   0.0000   0.0000   0.0000   0.3685
   4.500   1.1309   0.00745   0.00311  -0.1387  0.5682  1.0000  -1.4425   0.0000   0.0000   0.0000   0.3651
   4.750   1.1571   0.00762   0.00325  -0.1385  0.5567  1.0000  -1.4846   0.0000   0.0000   0.0000   0.3618
   5.000   1.1831   0.00780   0.00340  -0.1382  0.5442  1.0000  -1.5308   0.0000   0.0000   0.0000   0.3586
   5.250   1.2087   0.00801   0.00356  -0.1379  0.5311  1.0000  -1.5779   0.0000   0.0000   0.0000   0.3555
   5.500   1.2332   0.00825   0.00375  -0.1375  0.5168  1.0000  -1.6278   0.0000   0.0000   0.0000   0.3525
   5.750   1.2577   0.00851   0.00395  -0.1370  0.5009  1.0000  -1.6825   0.0000   0.0000   0.0000   0.3496
   6.000   1.2812   0.00880   0.00418  -0.1363  0.4848  1.0000  -1.7451   0.0000   0.0000   0.0000   0.3468
   6.500   1.3257   0.00950   0.00473  -0.1347  0.4484  1.0000  -1.8894   0.0000   0.0000   0.0000   0.3412
   6.750   1.3466   0.00990   0.00504  -0.1336  0.4291  1.0000  -1.9658   0.0000   0.0000   0.0000   0.3385
   7.000   1.3668   0.01032   0.00538  -0.1325  0.4100  1.0000  -2.0463   0.0000   0.0000   0.0000   0.3358
   7.250   1.3861   0.01076   0.00574  -0.1312  0.3913  1.0000  -2.1274   0.0000   0.0000   0.0000   0.3332
   7.500   1.4039   0.01123   0.00613  -0.1296  0.3728  1.0000  -2.2087   0.0000   0.0000   0.0000   0.3305
   8.000   1.4359   0.01222   0.00699  -0.1259  0.3391  1.0000  -2.3708   0.0000   0.0000   0.0000   0.3251
   8.250   1.4513   0.01279   0.00749  -0.1241  0.3231  1.0000  -2.4788   0.0000   0.0000   0.0000   0.3225
   8.500   1.4658   0.01343   0.00806  -0.1222  0.3064  1.0000  -2.5861   0.0000   0.0000   0.0000   0.3200
   8.750   1.4801   0.01411   0.00868  -0.1204  0.2895  1.0000  -2.6942   0.0000   0.0000   0.0000   0.3175
   9.000   1.4933   0.01487   0.00937  -0.1185  0.2724  1.0000  -2.8008   0.0000   0.0000   0.0000   0.3151
   9.250   1.5057   0.01572   0.01013  -0.1166  0.2557  1.0000  -2.9081   0.0000   0.0000   0.0000   0.3128
   9.500   1.5182   0.01658   0.01093  -0.1148  0.2392  1.0000  -3.0191   0.0000   0.0000   0.0000   0.3105
   9.750   1.5301   0.01751   0.01180  -0.1130  0.2232  1.0000  -3.1297   0.0000   0.0000   0.0000   0.3083
  10.000   1.5410   0.01853   0.01274  -0.1111  0.2078  1.0000  -3.2386   0.0000   0.0000   0.0000   0.3061
  10.250   1.5522   0.01955   0.01371  -0.1093  0.1931  1.0000  -3.3494   0.0000   0.0000   0.0000   0.3040
  10.500   1.5623   0.02066   0.01476  -0.1075  0.1790  1.0000  -3.4583   0.0000   0.0000   0.0000   0.3020
  10.750   1.5715   0.02186   0.01590  -0.1056  0.1647  1.0000  -3.5653   0.0000   0.0000   0.0000   0.2999
  11.000   1.5806   0.02308   0.01706  -0.1038  0.1515  1.0000  -3.6732   0.0000   0.0000   0.0000   0.2979
  11.250   1.5886   0.02440   0.01833  -0.1020  0.1386  1.0000  -3.7786   0.0000   0.0000   0.0000   0.2959
  11.500   1.5969   0.02572   0.01960  -0.1002  0.1271  1.0000  -3.8856   0.0000   0.0000   0.0000   0.2940
  11.750   1.6049   0.02708   0.02092  -0.0985  0.1166  1.0000  -3.9928   0.0000   0.0000   0.0000   0.2921
  12.000   1.6121   0.02852   0.02233  -0.0967  0.1069  1.0000  -4.0979   0.0000   0.0000   0.0000   0.2903
  12.250   1.6189   0.03001   0.02379  -0.0950  0.0983  1.0000  -4.2026   0.0000   0.0000   0.0000   0.2885
  12.500   1.6260   0.03150   0.02528  -0.0933  0.0903  1.0000  -4.3087   0.0000   0.0000   0.0000   0.2867
  12.750   1.6326   0.03306   0.02683  -0.0918  0.0831  1.0000  -4.4179   0.0000   0.0000   0.0000   0.2850
  13.000   1.6391   0.03469   0.02844  -0.0902  0.0768  1.0000  -4.5273   0.0000   0.0000   0.0000   0.2833
  13.250   1.6452   0.03637   0.03013  -0.0888  0.0712  1.0000  -4.6361   0.0000   0.0000   0.0000   0.2817
  13.500   1.6509   0.03813   0.03189  -0.0873  0.0661  1.0000  -4.7443   0.0000   0.0000   0.0000   0.2801
  13.750   1.6571   0.03988   0.03366  -0.0860  0.0616  1.0000  -4.8547   0.0000   0.0000   0.0000   0.2786
  14.000   1.6633   0.04168   0.03548  -0.0848  0.0577  1.0000  -4.9655   0.0000   0.0000   0.0000   0.2772
  14.250   1.6687   0.04358   0.03741  -0.0836  0.0542  1.0000  -5.0743   0.0000   0.0000   0.0000   0.2757
  14.750   1.6787   0.04756   0.04145  -0.0814  0.0483  1.0000  -5.2897   0.0000   0.0000   0.0000   0.2730
  15.000   1.6830   0.04968   0.04361  -0.0803  0.0457  1.0000  -5.3949   0.0000   0.0000   0.0000   0.2717
  15.250   1.6865   0.05191   0.04587  -0.0794  0.0432  1.0000  -5.4977   0.0000   0.0000   0.0000   0.2705
  15.500   1.6905   0.05412   0.04813  -0.0785  0.0409  1.0000  -5.6206   0.0000   0.0000   0.0000   0.2692
  15.750   1.6921   0.05664   0.05068  -0.0776  0.0387  1.0000  -5.7400   0.0000   0.0000   0.0000   0.2681
  16.000   1.6952   0.05902   0.05313  -0.0768  0.0365  1.0000  -5.8672   0.0000   0.0000   0.0000   0.2670
  16.250   1.6963   0.06166   0.05581  -0.0761  0.0345  1.0000  -5.9852   0.0000   0.0000   0.0000   0.2659
  16.500   1.6963   0.06448   0.05867  -0.0754  0.0326  1.0000  -6.0980   0.0000   0.0000   0.0000   0.2649
  16.750   1.6971   0.06725   0.06151  -0.0749  0.0307  1.0000  -6.2146   0.0000   0.0000   0.0000   0.2640
  17.000   1.6945   0.07045   0.06475  -0.0744  0.0292  1.0000  -6.3141   0.0000   0.0000   0.0000   0.2631
  17.250   1.6944   0.07341   0.06779  -0.0740  0.0276  1.0000  -6.4260   0.0000   0.0000   0.0000   0.2623
  17.500   1.6901   0.07692   0.07135  -0.0737  0.0265  1.0000  -6.5162   0.0000   0.0000   0.0000   0.2616
  17.750   1.6890   0.08009   0.07461  -0.0735  0.0253  1.0000  -6.6217   0.0000   0.0000   0.0000   0.2609
  18.000   1.6844   0.08375   0.07833  -0.0734  0.0244  1.0000  -6.7096   0.0000   0.0000   0.0000   0.2603
  18.250   1.6800   0.08745   0.08211  -0.0735  0.0236  1.0000  -6.7962   0.0000   0.0000   0.0000   0.2599
  18.500   1.6769   0.09099   0.08573  -0.0736  0.0228  1.0000  -6.8907   0.0000   0.0000   0.0000   0.2594
  18.750   1.6713   0.09493   0.08974  -0.0740  0.0221  1.0000  -6.9721   0.0000   0.0000   0.0000   0.2591
  19.000   1.6639   0.09918   0.09407  -0.0745  0.0216  1.0000  -7.0424   0.0000   0.0000   0.0000   0.2590
  19.250   1.6609   0.10285   0.09783  -0.0751  0.0209  1.0000  -7.1377   0.0000   0.0000   0.0000   0.2587
  19.500   1.6564   0.10676   0.10183  -0.0758  0.0204  1.0000  -7.2233   0.0000   0.0000   0.0000   0.2586
  19.750   1.6499   0.11101   0.10615  -0.0768  0.0200  1.0000  -7.2953   0.0000   0.0000   0.0000   0.2587
  20.000   1.6412   0.11564   0.11085  -0.0780  0.0196  1.0000  -7.3501   0.0000   0.0000   0.0000   0.2590


