xflr5 v6.61

 Calculated polar for: QX0026

 1 1 Reynolds number fixed          Mach number fixed         

 xtrf =   1.000 (top)        1.000 (bottom)
 Mach =   0.000     Re =     0.640 e 6     Ncrit =   9.000

  alpha     CL        CD       CDp       Cm    Top Xtr Bot Xtr   Cpmin    Chinge    XCp    
 ------- -------- --------- --------- -------- ------- ------- -------- --------- ---------
 -10.000  -0.5133   0.02115   0.01574  -0.1223  0.8045  0.0235  -6.1006   0.0000   0.0000   0.0000  -0.0069
  -9.750  -0.4892   0.02035   0.01481  -0.1223  0.8014  0.0241  -5.8883   0.0000   0.0000   0.0000  -0.0188
  -9.500  -0.4648   0.01959   0.01387  -0.1222  0.7987  0.0247  -5.6802   0.0000   0.0000   0.0000  -0.0321
  -9.250  -0.4390   0.01904   0.01317  -0.1223  0.7955  0.0252  -5.4626   0.0000   0.0000   0.0000  -0.0479
  -9.000  -0.4157   0.01787   0.01193  -0.1223  0.7925  0.0260  -5.2668   0.0000   0.0000   0.0000  -0.0638
  -8.750  -0.3896   0.01739   0.01141  -0.1224  0.7900  0.0267  -5.0380   0.0000   0.0000   0.0000  -0.0841
  -8.500  -0.3633   0.01689   0.01084  -0.1224  0.7873  0.0274  -4.8187   0.0000   0.0000   0.0000  -0.1077
  -8.250  -0.3368   0.01635   0.01022  -0.1225  0.7842  0.0282  -4.6078   0.0000   0.0000   0.0000  -0.1350
  -8.000  -0.3099   0.01588   0.00963  -0.1225  0.7815  0.0289  -4.3994   0.0000   0.0000   0.0000  -0.1675
  -7.750  -0.2840   0.01518   0.00883  -0.1225  0.7793  0.0298  -4.2152   0.0000   0.0000   0.0000  -0.2047
  -7.500  -0.2573   0.01470   0.00836  -0.1227  0.7765  0.0308  -4.0184   0.0000   0.0000   0.0000  -0.2513
  -7.250  -0.2298   0.01434   0.00797  -0.1228  0.7736  0.0319  -3.8232   0.0000   0.0000   0.0000  -0.3104
  -7.000  -0.2022   0.01397   0.00752  -0.1229  0.7711  0.0330  -3.6369   0.0000   0.0000   0.0000  -0.3859
  -6.750  -0.1751   0.01351   0.00697  -0.1229  0.7689  0.0341  -3.4588   0.0000   0.0000   0.0000  -0.4835
  -6.500  -0.1479   0.01305   0.00653  -0.1230  0.7660  0.0354  -3.2874   0.0000   0.0000   0.0000  -0.6171
  -6.250  -0.1200   0.01275   0.00620  -0.1232  0.7632  0.0369  -3.1195   0.0000   0.0000   0.0000  -0.8177
  -6.000  -0.0918   0.01249   0.00585  -0.1233  0.7608  0.0384  -2.9554   0.0000   0.0000   0.0000  -1.1447
  -5.750  -0.0643   0.01209   0.00546  -0.1235  0.7584  0.0405  -2.7931   0.0000   0.0000   0.0000  -1.7407
  -5.500  -0.0360   0.01185   0.00520  -0.1236  0.7554  0.0426  -2.6347   0.0000   0.0000   0.0000  -3.2985
  -5.250  -0.0081   0.01149   0.00483  -0.1238  0.7526  0.0449  -2.4930   0.0000   0.0000   0.0000  -15.4469
  -5.000   0.0204   0.01129   0.00458  -0.1239  0.7502  0.0476  -2.3483   0.0000   0.0000   0.0000   6.5090
  -4.750   0.0486   0.01101   0.00431  -0.1241  0.7477  0.0508  -2.2074   0.0000   0.0000   0.0000   2.8754
  -4.500   0.0771   0.01080   0.00409  -0.1243  0.7447  0.0548  -2.0676   0.0000   0.0000   0.0000   1.9060
  -4.250   0.1058   0.01060   0.00388  -0.1245  0.7421  0.0596  -1.9291   0.0000   0.0000   0.0000   1.4572
  -4.000   0.1344   0.01037   0.00365  -0.1248  0.7398  0.0661  -1.7938   0.0000   0.0000   0.0000   1.1999
  -3.750   0.1629   0.01015   0.00348  -0.1250  0.7372  0.0758  -1.6685   0.0000   0.0000   0.0000   1.0339
  -3.500   0.1914   0.00993   0.00333  -0.1252  0.7342  0.0907  -1.5479   0.0000   0.0000   0.0000   0.9172
  -3.250   0.2201   0.00972   0.00319  -0.1255  0.7316  0.1112  -1.4281   0.0000   0.0000   0.0000   0.8305
  -3.000   0.2489   0.00955   0.00307  -0.1258  0.7292  0.1344  -1.3094   0.0000   0.0000   0.0000   0.7635
  -2.750   0.2775   0.00939   0.00299  -0.1260  0.7263  0.1589  -1.1936   0.0000   0.0000   0.0000   0.7108
  -2.500   0.3061   0.00921   0.00291  -0.1263  0.7232  0.1873  -1.0800   0.0000   0.0000   0.0000   0.6678
  -2.250   0.3348   0.00903   0.00282  -0.1266  0.7203  0.2204  -0.9767   0.0000   0.0000   0.0000   0.6321
  -2.000   0.3635   0.00884   0.00275  -0.1268  0.7175  0.2632  -0.8763   0.0000   0.0000   0.0000   0.6022
  -1.750   0.3918   0.00864   0.00272  -0.1271  0.7140  0.3141  -0.7794   0.0000   0.0000   0.0000   0.5768
  -1.500   0.4204   0.00847   0.00268  -0.1274  0.7110  0.3631  -0.7903   0.0000   0.0000   0.0000   0.5546
  -1.250   0.4492   0.00833   0.00265  -0.1276  0.7084  0.4135  -0.8070   0.0000   0.0000   0.0000   0.5351
  -1.000   0.4774   0.00816   0.00266  -0.1278  0.7050  0.4687  -0.8232   0.0000   0.0000   0.0000   0.5182
  -0.750   0.5057   0.00800   0.00266  -0.1280  0.7013  0.5263  -0.8411   0.0000   0.0000   0.0000   0.5030
  -0.500   0.5342   0.00787   0.00264  -0.1282  0.6981  0.5791  -0.8611   0.0000   0.0000   0.0000   0.4893
  -0.250   0.5620   0.00774   0.00268  -0.1282  0.6939  0.6315  -0.8806   0.0000   0.0000   0.0000   0.4770
   0.000   0.5901   0.00766   0.00270  -0.1282  0.6902  0.6776  -0.9005   0.0000   0.0000   0.0000   0.4657
   0.250   0.6185   0.00762   0.00271  -0.1282  0.6871  0.7149  -0.9205   0.0000   0.0000   0.0000   0.4554
   0.750   0.6737   0.00749   0.00277  -0.1280  0.6788  0.7829  -0.9653   0.0000   0.0000   0.0000   0.4374
   1.000   0.7004   0.00742   0.00280  -0.1277  0.6749  0.8200  -0.9881   0.0000   0.0000   0.0000   0.4293
   1.250   0.7256   0.00733   0.00284  -0.1269  0.6704  0.8668  -1.0100   0.0000   0.0000   0.0000   0.4216
   1.500   0.7496   0.00723   0.00284  -0.1258  0.6665  0.9294  -1.0314   0.0000   0.0000   0.0000   0.4140
   1.750   0.7908   0.00717   0.00282  -0.1286  0.6613  1.0001  -1.0647   0.0000   0.0000   0.0000   0.4086
   2.000   0.8191   0.00723   0.00283  -0.1288  0.6570  1.0001  -1.0928   0.0000   0.0000   0.0000   0.4028
   2.250   0.8472   0.00728   0.00287  -0.1289  0.6522  1.0001  -1.1208   0.0000   0.0000   0.0000   0.3974
   2.500   0.8752   0.00734   0.00289  -0.1290  0.6470  1.0001  -1.1495   0.0000   0.0000   0.0000   0.3924
   2.750   0.9030   0.00740   0.00294  -0.1291  0.6411  1.0001  -1.1785   0.0000   0.0000   0.0000   0.3876
   3.000   0.9308   0.00747   0.00297  -0.1291  0.6354  1.0001  -1.2088   0.0000   0.0000   0.0000   0.3830
   3.250   0.9585   0.00754   0.00304  -0.1292  0.6295  1.0001  -1.2425   0.0000   0.0000   0.0000   0.3788
   3.500   0.9863   0.00762   0.00309  -0.1293  0.6242  1.0001  -1.2769   0.0000   0.0000   0.0000   0.3747
   3.750   1.0138   0.00769   0.00318  -0.1293  0.6176  1.0001  -1.3119   0.0000   0.0000   0.0000   0.3709
   4.000   1.0411   0.00779   0.00325  -0.1293  0.6108  1.0001  -1.3470   0.0000   0.0000   0.0000   0.3672
   4.250   1.0682   0.00788   0.00333  -0.1292  0.6035  1.0001  -1.3820   0.0000   0.0000   0.0000   0.3637
   4.500   1.0951   0.00799   0.00343  -0.1291  0.5954  1.0001  -1.4247   0.0000   0.0000   0.0000   0.3603
   4.750   1.1216   0.00811   0.00354  -0.1290  0.5866  1.0001  -1.4686   0.0000   0.0000   0.0000   0.3570
   5.000   1.1477   0.00826   0.00365  -0.1288  0.5774  1.0001  -1.5125   0.0000   0.0000   0.0000   0.3539
   5.250   1.1735   0.00842   0.00379  -0.1285  0.5676  1.0001  -1.5564   0.0000   0.0000   0.0000   0.3509
   5.500   1.1991   0.00859   0.00394  -0.1282  0.5571  1.0001  -1.6003   0.0000   0.0000   0.0000   0.3479
   5.750   1.2243   0.00877   0.00410  -0.1278  0.5460  1.0001  -1.6444   0.0000   0.0000   0.0000   0.3451
   6.000   1.2491   0.00896   0.00429  -0.1274  0.5342  1.0001  -1.7056   0.0000   0.0000   0.0000   0.3423
   6.250   1.2732   0.00919   0.00449  -0.1269  0.5212  1.0001  -1.7691   0.0000   0.0000   0.0000   0.3396
   6.500   1.2960   0.00946   0.00471  -0.1261  0.5066  1.0001  -1.8339   0.0000   0.0000   0.0000   0.3369
   6.750   1.3173   0.00980   0.00499  -0.1251  0.4879  1.0001  -1.9061   0.0000   0.0000   0.0000   0.3342
   7.000   1.3367   0.01021   0.00531  -0.1237  0.4658  1.0001  -1.9817   0.0000   0.0000   0.0000   0.3314
   7.250   1.3552   0.01065   0.00566  -0.1223  0.4452  1.0001  -2.0592   0.0000   0.0000   0.0000   0.3287
   7.500   1.3729   0.01112   0.00605  -0.1207  0.4272  1.0001  -2.1362   0.0000   0.0000   0.0000   0.3260
   7.750   1.3896   0.01159   0.00647  -0.1190  0.4087  1.0001  -2.2141   0.0000   0.0000   0.0000   0.3233
   8.000   1.4026   0.01212   0.00693  -0.1166  0.3895  1.0001  -2.3118   0.0000   0.0000   0.0000   0.3204
   8.250   1.4147   0.01276   0.00748  -0.1141  0.3703  1.0001  -2.4094   0.0000   0.0000   0.0000   0.3176
   8.500   1.4265   0.01347   0.00811  -0.1118  0.3522  1.0001  -2.5075   0.0000   0.0000   0.0000   0.3149
   8.750   1.4392   0.01419   0.00877  -0.1098  0.3344  1.0001  -2.6090   0.0000   0.0000   0.0000   0.3124
   9.000   1.4512   0.01499   0.00951  -0.1078  0.3166  1.0001  -2.7096   0.0000   0.0000   0.0000   0.3100
   9.250   1.4617   0.01592   0.01037  -0.1057  0.2995  1.0001  -2.8080   0.0000   0.0000   0.0000   0.3076
   9.500   1.4722   0.01691   0.01130  -0.1038  0.2828  1.0001  -2.9131   0.0000   0.0000   0.0000   0.3053
   9.750   1.4831   0.01792   0.01225  -0.1019  0.2649  1.0001  -3.0204   0.0000   0.0000   0.0000   0.3031
  10.000   1.4921   0.01909   0.01334  -0.1000  0.2470  1.0001  -3.1237   0.0000   0.0000   0.0000   0.3010
  10.250   1.5005   0.02033   0.01450  -0.0981  0.2314  1.0001  -3.2257   0.0000   0.0000   0.0000   0.2988
  10.500   1.5094   0.02156   0.01569  -0.0963  0.2161  1.0001  -3.3303   0.0000   0.0000   0.0000   0.2968
  10.750   1.5182   0.02283   0.01690  -0.0946  0.1997  1.0001  -3.4360   0.0000   0.0000   0.0000   0.2948
  11.000   1.5255   0.02421   0.01821  -0.0928  0.1854  1.0001  -3.5376   0.0000   0.0000   0.0000   0.2929
  11.250   1.5330   0.02561   0.01957  -0.0910  0.1735  1.0001  -3.6406   0.0000   0.0000   0.0000   0.2910
  11.500   1.5413   0.02697   0.02090  -0.0894  0.1614  1.0001  -3.7472   0.0000   0.0000   0.0000   0.2891
  11.750   1.5481   0.02844   0.02232  -0.0877  0.1484  1.0001  -3.8497   0.0000   0.0000   0.0000   0.2873
  12.000   1.5543   0.02998   0.02383  -0.0860  0.1367  1.0001  -3.9513   0.0000   0.0000   0.0000   0.2855
  12.250   1.5596   0.03162   0.02543  -0.0843  0.1265  1.0001  -4.0503   0.0000   0.0000   0.0000   0.2837
  12.500   1.5652   0.03326   0.02705  -0.0827  0.1169  1.0001  -4.1507   0.0000   0.0000   0.0000   0.2820
  12.750   1.5709   0.03493   0.02870  -0.0812  0.1066  1.0001  -4.2523   0.0000   0.0000   0.0000   0.2803
  13.000   1.5754   0.03675   0.03049  -0.0797  0.0969  1.0001  -4.3504   0.0000   0.0000   0.0000   0.2787
  13.250   1.5800   0.03861   0.03233  -0.0783  0.0881  1.0001  -4.4488   0.0000   0.0000   0.0000   0.2771
  13.500   1.5839   0.04056   0.03426  -0.0769  0.0809  1.0001  -4.5466   0.0000   0.0000   0.0000   0.2756
  13.750   1.5880   0.04254   0.03625  -0.0756  0.0747  1.0001  -4.6509   0.0000   0.0000   0.0000   0.2741
  14.000   1.5923   0.04455   0.03827  -0.0744  0.0693  1.0001  -4.7568   0.0000   0.0000   0.0000   0.2727
  14.250   1.5967   0.04659   0.04033  -0.0733  0.0645  1.0001  -4.8630   0.0000   0.0000   0.0000   0.2713
  14.500   1.6006   0.04871   0.04248  -0.0722  0.0602  1.0001  -4.9679   0.0000   0.0000   0.0000   0.2700
  14.750   1.6036   0.05095   0.04474  -0.0712  0.0563  1.0001  -5.0695   0.0000   0.0000   0.0000   0.2687
  15.000   1.6068   0.05322   0.04704  -0.0703  0.0526  1.0001  -5.1719   0.0000   0.0000   0.0000   0.2675
  15.250   1.6104   0.05550   0.04936  -0.0694  0.0491  1.0001  -5.2760   0.0000   0.0000   0.0000   0.2663
  15.500   1.6125   0.05798   0.05187  -0.0686  0.0460  1.0001  -5.3740   0.0000   0.0000   0.0000   0.2652
  15.750   1.6136   0.06060   0.05452  -0.0679  0.0430  1.0001  -5.4692   0.0000   0.0000   0.0000   0.2641
  16.000   1.6155   0.06315   0.05714  -0.0672  0.0402  1.0001  -5.5746   0.0000   0.0000   0.0000   0.2631
  16.250   1.6145   0.06608   0.06010  -0.0666  0.0378  1.0001  -5.6728   0.0000   0.0000   0.0000   0.2621
  16.500   1.6146   0.06893   0.06301  -0.0660  0.0354  1.0001  -5.7762   0.0000   0.0000   0.0000   0.2612
  16.750   1.6125   0.07211   0.06624  -0.0656  0.0334  1.0001  -5.8681   0.0000   0.0000   0.0000   0.2603
  17.000   1.6113   0.07522   0.06942  -0.0653  0.0315  1.0001  -5.9646   0.0000   0.0000   0.0000   0.2596
  17.250   1.6061   0.07888   0.07313  -0.0650  0.0300  1.0001  -6.0407   0.0000   0.0000   0.0000   0.2589
  17.500   1.6053   0.08200   0.07635  -0.0649  0.0286  1.0001  -6.1380   0.0000   0.0000   0.0000   0.2583
  17.750   1.6010   0.08563   0.08004  -0.0649  0.0275  1.0001  -6.2195   0.0000   0.0000   0.0000   0.2577
  18.250   1.5901   0.09340   0.08798  -0.0652  0.0258  1.0001  -6.3742   0.0000   0.0000   0.0000   0.2570
  18.500   1.5864   0.09713   0.09179  -0.0656  0.0250  1.0001  -6.4610   0.0000   0.0000   0.0000   0.2566
  18.750   1.5811   0.10110   0.09585  -0.0661  0.0243  1.0001  -6.5379   0.0000   0.0000   0.0000   0.2564
  19.000   1.5733   0.10544   0.10027  -0.0667  0.0238  1.0001  -6.5993   0.0000   0.0000   0.0000   0.2564
  19.250   1.5622   0.11033   0.10523  -0.0676  0.0232  1.0001  -6.6377   0.0000   0.0000   0.0000   0.2567
  19.500   1.5575   0.11437   0.10938  -0.0685  0.0228  1.0001  -6.7122   0.0000   0.0000   0.0000   0.2567
  19.750   1.5533   0.11837   0.11347  -0.0694  0.0223  1.0001  -6.7893   0.0000   0.0000   0.0000   0.2568
  20.000   1.5483   0.12252   0.11772  -0.0706  0.0218  1.0001  -6.8599   0.0000   0.0000   0.0000   0.2570


