xflr5 v6.61

 Calculated polar for: QX0026

 1 1 Reynolds number fixed          Mach number fixed         

 xtrf =   1.000 (top)        1.000 (bottom)
 Mach =   0.000     Re =     0.375 e 6     Ncrit =   9.000

  alpha     CL        CD       CDp       Cm    Top Xtr Bot Xtr   Cpmin    Chinge    XCp    
 ------- -------- --------- --------- -------- ------- ------- -------- --------- ---------
 -10.000  -0.4652   0.03233   0.02736  -0.1253  0.8397  0.0294  -5.3982   0.0000   0.0000   0.0000  -0.0393
  -9.750  -0.4488   0.03026   0.02516  -0.1255  0.8364  0.0299  -5.2580   0.0000   0.0000   0.0000  -0.0495
  -9.500  -0.4253   0.02967   0.02461  -0.1257  0.8327  0.0306  -5.0340   0.0000   0.0000   0.0000  -0.0655
  -9.250  -0.4044   0.02853   0.02333  -0.1258  0.8292  0.0314  -4.8605   0.0000   0.0000   0.0000  -0.0813
  -9.000  -0.3861   0.02660   0.02103  -0.1258  0.8262  0.0324  -4.7496   0.0000   0.0000   0.0000  -0.0965
  -8.750  -0.3665   0.02469   0.01871  -0.1258  0.8223  0.0332  -4.6456   0.0000   0.0000   0.0000  -0.1142
  -8.500  -0.3449   0.02300   0.01667  -0.1257  0.8193  0.0339  -4.5161   0.0000   0.0000   0.0000  -0.1359
  -8.250  -0.3206   0.02190   0.01551  -0.1257  0.8166  0.0347  -4.3294   0.0000   0.0000   0.0000  -0.1643
  -8.000  -0.2953   0.02118   0.01475  -0.1258  0.8131  0.0357  -4.1355   0.0000   0.0000   0.0000  -0.1991
  -7.750  -0.2698   0.02042   0.01382  -0.1257  0.8102  0.0370  -3.9545   0.0000   0.0000   0.0000  -0.2404
  -7.500  -0.2438   0.01969   0.01280  -0.1256  0.8077  0.0381  -3.8042   0.0000   0.0000   0.0000  -0.2912
  -7.250  -0.2186   0.01861   0.01172  -0.1257  0.8043  0.0392  -3.6465   0.0000   0.0000   0.0000  -0.3525
  -7.000  -0.1921   0.01801   0.01108  -0.1257  0.8014  0.0404  -3.4736   0.0000   0.0000   0.0000  -0.4343
  -6.750  -0.1652   0.01742   0.01037  -0.1256  0.7990  0.0419  -3.3092   0.0000   0.0000   0.0000  -0.5440
  -6.500  -0.1386   0.01684   0.00967  -0.1256  0.7958  0.0435  -3.1524   0.0000   0.0000   0.0000  -0.6948
  -6.250  -0.1120   0.01629   0.00917  -0.1257  0.7927  0.0454  -2.9953   0.0000   0.0000   0.0000  -0.9171
  -6.000  -0.0846   0.01587   0.00865  -0.1257  0.7902  0.0475  -2.8465   0.0000   0.0000   0.0000  -1.2932
  -5.750  -0.0578   0.01531   0.00806  -0.1257  0.7876  0.0495  -2.7037   0.0000   0.0000   0.0000  -2.0032
  -5.500  -0.0308   0.01493   0.00770  -0.1257  0.7842  0.0520  -2.5546   0.0000   0.0000   0.0000  -3.9794
  -5.250  -0.0034   0.01450   0.00723  -0.1257  0.7814  0.0550  -2.4198   0.0000   0.0000   0.0000  -37.8859
  -5.000   0.0246   0.01419   0.00688  -0.1258  0.7792  0.0586  -2.2840   0.0000   0.0000   0.0000   5.5354
  -4.750   0.0515   0.01383   0.00656  -0.1259  0.7756  0.0624  -2.1548   0.0000   0.0000   0.0000   2.7672
  -4.500   0.0791   0.01350   0.00621  -0.1260  0.7726  0.0672  -2.0258   0.0000   0.0000   0.0000   1.8856
  -4.250   0.1073   0.01320   0.00590  -0.1261  0.7702  0.0735  -1.8952   0.0000   0.0000   0.0000   1.4560
  -4.000   0.1351   0.01293   0.00567  -0.1262  0.7674  0.0817  -1.7672   0.0000   0.0000   0.0000   1.2073
  -3.750   0.1628   0.01267   0.00546  -0.1263  0.7640  0.0940  -1.6498   0.0000   0.0000   0.0000   1.0437
  -3.500   0.1910   0.01238   0.00524  -0.1265  0.7614  0.1127  -1.5344   0.0000   0.0000   0.0000   0.9264
  -3.250   0.2196   0.01212   0.00504  -0.1268  0.7592  0.1383  -1.4182   0.0000   0.0000   0.0000   0.8384
  -3.000   0.2470   0.01192   0.00498  -0.1269  0.7556  0.1675  -1.3051   0.0000   0.0000   0.0000   0.7728
  -2.750   0.2751   0.01170   0.00486  -0.1271  0.7525  0.2005  -1.1919   0.0000   0.0000   0.0000   0.7194
  -2.500   0.3037   0.01146   0.00473  -0.1274  0.7501  0.2418  -1.0807   0.0000   0.0000   0.0000   0.6754
  -2.250   0.3314   0.01125   0.00470  -0.1276  0.7470  0.2940  -0.9804   0.0000   0.0000   0.0000   0.6397
  -2.000   0.3591   0.01105   0.00468  -0.1278  0.7434  0.3512  -0.8821   0.0000   0.0000   0.0000   0.6094
  -1.750   0.3875   0.01084   0.00461  -0.1280  0.7406  0.4080  -0.7853   0.0000   0.0000   0.0000   0.5830
  -1.500   0.4156   0.01066   0.00459  -0.1281  0.7377  0.4672  -0.7813   0.0000   0.0000   0.0000   0.5602
  -1.250   0.4426   0.01050   0.00464  -0.1280  0.7338  0.5296  -0.7968   0.0000   0.0000   0.0000   0.5406
  -1.000   0.4706   0.01034   0.00463  -0.1280  0.7308  0.5885  -0.8132   0.0000   0.0000   0.0000   0.5228
  -0.750   0.4985   0.01021   0.00464  -0.1279  0.7283  0.6456  -0.8325   0.0000   0.0000   0.0000   0.5068
  -0.500   0.5248   0.01016   0.00475  -0.1276  0.7242  0.6949  -0.8509   0.0000   0.0000   0.0000   0.4928
  -0.250   0.5523   0.01008   0.00473  -0.1274  0.7209  0.7361  -0.8703   0.0000   0.0000   0.0000   0.4798
   0.000   0.5796   0.00997   0.00469  -0.1270  0.7178  0.7746  -0.8898   0.0000   0.0000   0.0000   0.4679
   0.250   0.6045   0.00988   0.00474  -0.1262  0.7129  0.8151  -0.9077   0.0000   0.0000   0.0000   0.4572
   0.500   0.6295   0.00975   0.00470  -0.1253  0.7095  0.8603  -0.9285   0.0000   0.0000   0.0000   0.4469
   0.750   0.6537   0.00967   0.00471  -0.1241  0.7059  0.9147  -0.9497   0.0000   0.0000   0.0000   0.4374
   1.000   0.6936   0.00960   0.00466  -0.1265  0.7018  0.9774  -0.9797   0.0000   0.0000   0.0000   0.4295
   1.250   0.7296   0.00958   0.00455  -0.1283  0.6984  1.0001  -1.0078   0.0000   0.0000   0.0000   0.4226
   1.500   0.7566   0.00964   0.00459  -0.1282  0.6934  1.0001  -1.0304   0.0000   0.0000   0.0000   0.4159
   1.750   0.7851   0.00965   0.00454  -0.1284  0.6892  1.0001  -1.0565   0.0000   0.0000   0.0000   0.4097
   2.000   0.8131   0.00971   0.00456  -0.1285  0.6849  1.0001  -1.0843   0.0000   0.0000   0.0000   0.4038
   2.250   0.8408   0.00976   0.00459  -0.1286  0.6801  1.0001  -1.1120   0.0000   0.0000   0.0000   0.3983
   2.500   0.8698   0.00979   0.00455  -0.1288  0.6761  1.0001  -1.1410   0.0000   0.0000   0.0000   0.3932
   2.750   0.8965   0.00985   0.00463  -0.1287  0.6703  1.0001  -1.1691   0.0000   0.0000   0.0000   0.3883
   3.250   0.9519   0.00995   0.00469  -0.1287  0.6598  1.0001  -1.2332   0.0000   0.0000   0.0000   0.3793
   3.500   0.9800   0.00998   0.00467  -0.1288  0.6543  1.0001  -1.2675   0.0000   0.0000   0.0000   0.3752
   3.750   1.0067   0.01003   0.00473  -0.1286  0.6478  1.0001  -1.3019   0.0000   0.0000   0.0000   0.3712
   4.000   1.0340   0.01010   0.00480  -0.1286  0.6421  1.0001  -1.3369   0.0000   0.0000   0.0000   0.3675
   4.250   1.0612   0.01017   0.00485  -0.1285  0.6360  1.0001  -1.3721   0.0000   0.0000   0.0000   0.3639
   4.500   1.0875   0.01025   0.00496  -0.1283  0.6288  1.0001  -1.4135   0.0000   0.0000   0.0000   0.3604
   4.750   1.1143   0.01032   0.00501  -0.1282  0.6220  1.0001  -1.4576   0.0000   0.0000   0.0000   0.3571
   5.000   1.1405   0.01040   0.00510  -0.1279  0.6144  1.0001  -1.5014   0.0000   0.0000   0.0000   0.3539
   5.250   1.1660   0.01050   0.00522  -0.1276  0.6058  1.0001  -1.5450   0.0000   0.0000   0.0000   0.3508
   5.500   1.1914   0.01061   0.00533  -0.1272  0.5964  1.0001  -1.5887   0.0000   0.0000   0.0000   0.3478
   5.750   1.2164   0.01074   0.00545  -0.1267  0.5864  1.0001  -1.6327   0.0000   0.0000   0.0000   0.3449
   6.000   1.2410   0.01089   0.00560  -0.1262  0.5761  1.0001  -1.6914   0.0000   0.0000   0.0000   0.3420
   6.250   1.2651   0.01107   0.00577  -0.1256  0.5651  1.0001  -1.7548   0.0000   0.0000   0.0000   0.3393
   6.500   1.2888   0.01127   0.00597  -0.1249  0.5540  1.0001  -1.8201   0.0000   0.0000   0.0000   0.3366
   6.750   1.3116   0.01150   0.00619  -0.1242  0.5418  1.0001  -1.8920   0.0000   0.0000   0.0000   0.3339
   7.000   1.3334   0.01175   0.00643  -0.1232  0.5283  1.0001  -1.9701   0.0000   0.0000   0.0000   0.3313
   7.250   1.3534   0.01206   0.00670  -0.1219  0.5120  1.0001  -2.0498   0.0000   0.0000   0.0000   0.3286
   7.500   1.3709   0.01246   0.00703  -0.1202  0.4930  1.0001  -2.1264   0.0000   0.0000   0.0000   0.3258
   7.750   1.3872   0.01290   0.00742  -0.1183  0.4734  1.0001  -2.2023   0.0000   0.0000   0.0000   0.3230
   8.000   1.4023   0.01338   0.00785  -0.1163  0.4549  1.0001  -2.3007   0.0000   0.0000   0.0000   0.3203
   8.250   1.4134   0.01393   0.00833  -0.1136  0.4376  1.0001  -2.3960   0.0000   0.0000   0.0000   0.3173
   8.500   1.4243   0.01457   0.00891  -0.1110  0.4195  1.0001  -2.4916   0.0000   0.0000   0.0000   0.3144
   8.750   1.4343   0.01531   0.00960  -0.1084  0.4007  1.0001  -2.5861   0.0000   0.0000   0.0000   0.3117
   9.000   1.4431   0.01618   0.01040  -0.1058  0.3821  1.0001  -2.6782   0.0000   0.0000   0.0000   0.3090
   9.250   1.4511   0.01716   0.01131  -0.1033  0.3643  1.0001  -2.7692   0.0000   0.0000   0.0000   0.3065
   9.500   1.4604   0.01815   0.01226  -0.1012  0.3468  1.0001  -2.8643   0.0000   0.0000   0.0000   0.3041
   9.750   1.4690   0.01924   0.01331  -0.0990  0.3298  1.0001  -2.9641   0.0000   0.0000   0.0000   0.3018
  10.000   1.4766   0.02045   0.01446  -0.0969  0.3129  1.0001  -3.0621   0.0000   0.0000   0.0000   0.2996
  10.250   1.4842   0.02170   0.01567  -0.0949  0.2967  1.0001  -3.1608   0.0000   0.0000   0.0000   0.2974
  10.500   1.4908   0.02307   0.01698  -0.0929  0.2808  1.0001  -3.2574   0.0000   0.0000   0.0000   0.2953
  10.750   1.4977   0.02445   0.01832  -0.0911  0.2637  1.0001  -3.3558   0.0000   0.0000   0.0000   0.2933
  11.000   1.5035   0.02595   0.01977  -0.0891  0.2471  1.0001  -3.4513   0.0000   0.0000   0.0000   0.2913
  11.250   1.5077   0.02758   0.02134  -0.0872  0.2319  1.0001  -3.5428   0.0000   0.0000   0.0000   0.2894
  11.500   1.5125   0.02920   0.02291  -0.0853  0.2166  1.0001  -3.6369   0.0000   0.0000   0.0000   0.2875
  11.750   1.5179   0.03082   0.02450  -0.0836  0.2007  1.0001  -3.7331   0.0000   0.0000   0.0000   0.2856
  12.000   1.5213   0.03260   0.02622  -0.0818  0.1870  1.0001  -3.8237   0.0000   0.0000   0.0000   0.2838
  12.250   1.5250   0.03440   0.02799  -0.0801  0.1745  1.0001  -3.9154   0.0000   0.0000   0.0000   0.2821
  12.500   1.5294   0.03621   0.02978  -0.0785  0.1620  1.0001  -4.0096   0.0000   0.0000   0.0000   0.2804
  12.750   1.5334   0.03810   0.03164  -0.0770  0.1490  1.0001  -4.1031   0.0000   0.0000   0.0000   0.2788
  13.000   1.5364   0.04010   0.03362  -0.0756  0.1375  1.0001  -4.1935   0.0000   0.0000   0.0000   0.2772
  13.250   1.5386   0.04224   0.03573  -0.0741  0.1269  1.0001  -4.2810   0.0000   0.0000   0.0000   0.2757
  13.500   1.5407   0.04444   0.03792  -0.0728  0.1171  1.0001  -4.3683   0.0000   0.0000   0.0000   0.2742
  13.750   1.5437   0.04661   0.04009  -0.0716  0.1073  1.0001  -4.4603   0.0000   0.0000   0.0000   0.2728
  14.000   1.5453   0.04895   0.04242  -0.0704  0.0986  1.0001  -4.5521   0.0000   0.0000   0.0000   0.2715
  14.250   1.5462   0.05141   0.04487  -0.0693  0.0910  1.0001  -4.6412   0.0000   0.0000   0.0000   0.2702
  14.500   1.5470   0.05394   0.04741  -0.0682  0.0844  1.0001  -4.7296   0.0000   0.0000   0.0000   0.2689
  14.750   1.5470   0.05662   0.05011  -0.0673  0.0786  1.0001  -4.8147   0.0000   0.0000   0.0000   0.2677
  15.000   1.5468   0.05936   0.05287  -0.0664  0.0735  1.0001  -4.8991   0.0000   0.0000   0.0000   0.2666
  15.250   1.5474   0.06206   0.05561  -0.0657  0.0686  1.0001  -4.9860   0.0000   0.0000   0.0000   0.2656
  15.500   1.5474   0.06487   0.05847  -0.0650  0.0643  1.0001  -5.0700   0.0000   0.0000   0.0000   0.2646
  15.750   1.5461   0.06788   0.06153  -0.0644  0.0605  1.0001  -5.1486   0.0000   0.0000   0.0000   0.2637
  16.000   1.5433   0.07114   0.06482  -0.0640  0.0572  1.0001  -5.2203   0.0000   0.0000   0.0000   0.2628
  16.250   1.5431   0.07415   0.06791  -0.0636  0.0537  1.0001  -5.3077   0.0000   0.0000   0.0000   0.2620
  16.500   1.5394   0.07763   0.07143  -0.0633  0.0510  1.0001  -5.3795   0.0000   0.0000   0.0000   0.2614
  16.750   1.5368   0.08099   0.07486  -0.0631  0.0482  1.0001  -5.4623   0.0000   0.0000   0.0000   0.2607
  17.000   1.5328   0.08459   0.07853  -0.0631  0.0457  1.0001  -5.5367   0.0000   0.0000   0.0000   0.2602
  17.250   1.5288   0.08826   0.08226  -0.0631  0.0435  1.0001  -5.6110   0.0000   0.0000   0.0000   0.2597
  17.500   1.5236   0.09214   0.08621  -0.0633  0.0415  1.0001  -5.6766   0.0000   0.0000   0.0000   0.2594
  17.750   1.5200   0.09586   0.09001  -0.0636  0.0396  1.0001  -5.7500   0.0000   0.0000   0.0000   0.2591
  18.000   1.5116   0.10023   0.09441  -0.0641  0.0383  1.0001  -5.7986   0.0000   0.0000   0.0000   0.2590
  18.250   1.5091   0.10386   0.09817  -0.0645  0.0367  1.0001  -5.8729   0.0000   0.0000   0.0000   0.2587
  18.500   1.5049   0.10776   0.10214  -0.0652  0.0354  1.0001  -5.9419   0.0000   0.0000   0.0000   0.2587
  18.750   1.4978   0.11204   0.10645  -0.0660  0.0343  1.0001  -5.9992   0.0000   0.0000   0.0000   0.2588
  19.000   1.4948   0.11584   0.11035  -0.0667  0.0332  1.0001  -6.0746   0.0000   0.0000   0.0000   0.2588
  19.250   1.4921   0.11962   0.11423  -0.0677  0.0321  1.0001  -6.1517   0.0000   0.0000   0.0000   0.2588
  19.500   1.4889   0.12346   0.11813  -0.0687  0.0313  1.0001  -6.2270   0.0000   0.0000   0.0000   0.2589
  19.750   1.4854   0.12727   0.12195  -0.0697  0.0305  1.0001  -6.2996   0.0000   0.0000   0.0000   0.2591
  20.000   1.4836   0.13081   0.12558  -0.0707  0.0298  1.0001  -6.3777   0.0000   0.0000   0.0000   0.2592


