xflr5 v6.61

 Calculated polar for: QX0026

 1 1 Reynolds number fixed          Mach number fixed         

 xtrf =   1.000 (top)        1.000 (bottom)
 Mach =   0.000     Re =     0.380 e 6     Ncrit =   9.000

  alpha     CL        CD       CDp       Cm    Top Xtr Bot Xtr   Cpmin    Chinge    XCp    
 ------- -------- --------- --------- -------- ------- ------- -------- --------- ---------
 -10.000  -0.4644   0.03247   0.02752  -0.1252  0.8387  0.0292  -5.3909   0.0000   0.0000   0.0000  -0.0394
  -9.750  -0.4521   0.02961   0.02439  -0.1254  0.8355  0.0298  -5.3087   0.0000   0.0000   0.0000  -0.0472
  -9.500  -0.4292   0.02883   0.02364  -0.1256  0.8315  0.0304  -5.0923   0.0000   0.0000   0.0000  -0.0626
  -9.250  -0.4066   0.02801   0.02274  -0.1257  0.8284  0.0312  -4.8933   0.0000   0.0000   0.0000  -0.0794
  -9.000  -0.3869   0.02636   0.02080  -0.1257  0.8251  0.0321  -4.7611   0.0000   0.0000   0.0000  -0.0956
  -8.750  -0.3669   0.02451   0.01857  -0.1257  0.8214  0.0330  -4.6496   0.0000   0.0000   0.0000  -0.1135
  -8.500  -0.3448   0.02313   0.01676  -0.1255  0.8186  0.0337  -4.5172   0.0000   0.0000   0.0000  -0.1356
  -8.250  -0.3213   0.02166   0.01526  -0.1256  0.8155  0.0345  -4.3441   0.0000   0.0000   0.0000  -0.1631
  -8.000  -0.2959   0.02096   0.01450  -0.1256  0.8122  0.0355  -4.1476   0.0000   0.0000   0.0000  -0.1978
  -7.750  -0.2702   0.02025   0.01366  -0.1256  0.8094  0.0367  -3.9609   0.0000   0.0000   0.0000  -0.2393
  -7.500  -0.2443   0.01951   0.01267  -0.1256  0.8066  0.0380  -3.8085   0.0000   0.0000   0.0000  -0.2899
  -7.250  -0.2189   0.01848   0.01158  -0.1255  0.8034  0.0390  -3.6542   0.0000   0.0000   0.0000  -0.3513
  -7.000  -0.1924   0.01786   0.01093  -0.1256  0.8006  0.0402  -3.4797   0.0000   0.0000   0.0000  -0.4327
  -6.750  -0.1655   0.01730   0.01026  -0.1256  0.7983  0.0416  -3.3129   0.0000   0.0000   0.0000  -0.5421
  -6.500  -0.1385   0.01685   0.00968  -0.1255  0.7948  0.0432  -3.1535   0.0000   0.0000   0.0000  -0.6949
  -6.250  -0.1122   0.01617   0.00905  -0.1256  0.7920  0.0451  -2.9999   0.0000   0.0000   0.0000  -0.9139
  -6.000  -0.0848   0.01576   0.00856  -0.1256  0.7896  0.0472  -2.8490   0.0000   0.0000   0.0000  -1.2887
  -5.750  -0.0580   0.01522   0.00799  -0.1256  0.7865  0.0493  -2.7072   0.0000   0.0000   0.0000  -1.9928
  -5.500  -0.0309   0.01482   0.00761  -0.1256  0.7834  0.0517  -2.5569   0.0000   0.0000   0.0000  -3.9524
  -5.250  -0.0034   0.01442   0.00714  -0.1257  0.7808  0.0547  -2.4221   0.0000   0.0000   0.0000  -37.7586
  -5.000   0.0243   0.01410   0.00682  -0.1258  0.7783  0.0582  -2.2860   0.0000   0.0000   0.0000   5.5913
  -4.750   0.0514   0.01374   0.00648  -0.1258  0.7748  0.0621  -2.1566   0.0000   0.0000   0.0000   2.7718
  -4.500   0.0792   0.01341   0.00614  -0.1259  0.7719  0.0668  -2.0270   0.0000   0.0000   0.0000   1.8841
  -4.250   0.1074   0.01312   0.00583  -0.1261  0.7696  0.0731  -1.8959   0.0000   0.0000   0.0000   1.4543
  -4.000   0.1349   0.01285   0.00561  -0.1262  0.7664  0.0812  -1.7684   0.0000   0.0000   0.0000   1.2078
  -3.750   0.1628   0.01259   0.00539  -0.1263  0.7633  0.0935  -1.6503   0.0000   0.0000   0.0000   1.0431
  -3.500   0.1911   0.01230   0.00516  -0.1265  0.7608  0.1121  -1.5345   0.0000   0.0000   0.0000   0.9257
  -3.250   0.2194   0.01205   0.00500  -0.1267  0.7583  0.1375  -1.4189   0.0000   0.0000   0.0000   0.8385
  -3.000   0.2470   0.01185   0.00492  -0.1269  0.7548  0.1665  -1.3053   0.0000   0.0000   0.0000   0.7725
  -2.750   0.2753   0.01162   0.00479  -0.1271  0.7519  0.1994  -1.1916   0.0000   0.0000   0.0000   0.7189
  -2.500   0.3039   0.01139   0.00466  -0.1274  0.7496  0.2404  -1.0802   0.0000   0.0000   0.0000   0.6749
  -2.250   0.3314   0.01118   0.00465  -0.1276  0.7461  0.2917  -0.9805   0.0000   0.0000   0.0000   0.6395
  -2.000   0.3594   0.01098   0.00461  -0.1277  0.7427  0.3489  -0.8818   0.0000   0.0000   0.0000   0.6091
  -1.750   0.3879   0.01077   0.00454  -0.1280  0.7401  0.4058  -0.7848   0.0000   0.0000   0.0000   0.5826
  -1.500   0.4155   0.01059   0.00454  -0.1280  0.7368  0.4640  -0.7815   0.0000   0.0000   0.0000   0.5602
  -1.250   0.4429   0.01042   0.00457  -0.1280  0.7331  0.5266  -0.7972   0.0000   0.0000   0.0000   0.5404
  -1.000   0.4710   0.01026   0.00455  -0.1280  0.7303  0.5857  -0.8137   0.0000   0.0000   0.0000   0.5226
  -0.750   0.4984   0.01015   0.00459  -0.1279  0.7273  0.6424  -0.8325   0.0000   0.0000   0.0000   0.5068
  -0.500   0.5252   0.01008   0.00467  -0.1276  0.7235  0.6924  -0.8512   0.0000   0.0000   0.0000   0.4927
  -0.250   0.5528   0.00999   0.00465  -0.1274  0.7203  0.7337  -0.8708   0.0000   0.0000   0.0000   0.4797
   0.250   0.6051   0.00980   0.00467  -0.1263  0.7122  0.8121  -0.9083   0.0000   0.0000   0.0000   0.4571
   0.500   0.6305   0.00968   0.00462  -0.1254  0.7090  0.8570  -0.9293   0.0000   0.0000   0.0000   0.4469
   0.750   0.6540   0.00960   0.00466  -0.1242  0.7050  0.9105  -0.9499   0.0000   0.0000   0.0000   0.4374
   1.000   0.6926   0.00952   0.00459  -0.1262  0.7011  0.9730  -0.9794   0.0000   0.0000   0.0000   0.4294
   1.250   0.7302   0.00949   0.00447  -0.1283  0.6979  1.0001  -1.0083   0.0000   0.0000   0.0000   0.4225
   1.500   0.7568   0.00955   0.00453  -0.1282  0.6926  1.0001  -1.0307   0.0000   0.0000   0.0000   0.4159
   1.750   0.7856   0.00956   0.00447  -0.1285  0.6886  1.0001  -1.0570   0.0000   0.0000   0.0000   0.4096
   2.000   0.8132   0.00963   0.00451  -0.1285  0.6840  1.0001  -1.0844   0.0000   0.0000   0.0000   0.4038
   2.250   0.8412   0.00967   0.00452  -0.1286  0.6795  1.0001  -1.1124   0.0000   0.0000   0.0000   0.3983
   2.500   0.8696   0.00971   0.00452  -0.1288  0.6751  1.0001  -1.1410   0.0000   0.0000   0.0000   0.3932
   2.750   0.8969   0.00977   0.00456  -0.1287  0.6696  1.0001  -1.1695   0.0000   0.0000   0.0000   0.3883
   3.000   0.9255   0.00981   0.00456  -0.1289  0.6653  1.0001  -1.2007   0.0000   0.0000   0.0000   0.3837
   3.250   0.9522   0.00986   0.00462  -0.1288  0.6591  1.0001  -1.2336   0.0000   0.0000   0.0000   0.3793
   3.500   0.9799   0.00990   0.00463  -0.1287  0.6533  1.0001  -1.2676   0.0000   0.0000   0.0000   0.3752
   3.750   1.0071   0.00995   0.00467  -0.1287  0.6471  1.0001  -1.3024   0.0000   0.0000   0.0000   0.3712
   4.000   1.0341   0.01003   0.00475  -0.1286  0.6412  1.0001  -1.3371   0.0000   0.0000   0.0000   0.3675
   4.250   1.0617   0.01009   0.00479  -0.1286  0.6354  1.0001  -1.3726   0.0000   0.0000   0.0000   0.3639
   4.500   1.0877   0.01017   0.00490  -0.1283  0.6280  1.0001  -1.4138   0.0000   0.0000   0.0000   0.3604
   4.750   1.1144   0.01025   0.00497  -0.1281  0.6210  1.0001  -1.4578   0.0000   0.0000   0.0000   0.3571
   5.000   1.1409   0.01033   0.00504  -0.1280  0.6137  1.0001  -1.5020   0.0000   0.0000   0.0000   0.3539
   5.250   1.1663   0.01043   0.00517  -0.1276  0.6049  1.0001  -1.5454   0.0000   0.0000   0.0000   0.3508
   5.500   1.1916   0.01054   0.00527  -0.1272  0.5955  1.0001  -1.5891   0.0000   0.0000   0.0000   0.3478
   5.750   1.2166   0.01067   0.00540  -0.1267  0.5854  1.0001  -1.6330   0.0000   0.0000   0.0000   0.3449
   6.000   1.2412   0.01083   0.00555  -0.1262  0.5750  1.0001  -1.6918   0.0000   0.0000   0.0000   0.3420
   6.250   1.2653   0.01101   0.00573  -0.1256  0.5641  1.0001  -1.7552   0.0000   0.0000   0.0000   0.3393
   6.500   1.2890   0.01121   0.00593  -0.1250  0.5529  1.0001  -1.8206   0.0000   0.0000   0.0000   0.3366
   6.750   1.3119   0.01144   0.00615  -0.1242  0.5407  1.0001  -1.8926   0.0000   0.0000   0.0000   0.3339
   7.000   1.3336   0.01170   0.00638  -0.1232  0.5272  1.0001  -1.9706   0.0000   0.0000   0.0000   0.3313
   7.250   1.3536   0.01201   0.00666  -0.1219  0.5105  1.0001  -2.0501   0.0000   0.0000   0.0000   0.3286
   7.500   1.3711   0.01241   0.00699  -0.1202  0.4913  1.0001  -2.1269   0.0000   0.0000   0.0000   0.3258
   7.750   1.3871   0.01286   0.00738  -0.1183  0.4719  1.0001  -2.2023   0.0000   0.0000   0.0000   0.3230
   8.000   1.4022   0.01334   0.00782  -0.1163  0.4533  1.0001  -2.3008   0.0000   0.0000   0.0000   0.3203
   8.250   1.4135   0.01388   0.00830  -0.1136  0.4359  1.0001  -2.3966   0.0000   0.0000   0.0000   0.3173
   8.500   1.4240   0.01454   0.00889  -0.1109  0.4181  1.0001  -2.4913   0.0000   0.0000   0.0000   0.3144
   8.750   1.4342   0.01528   0.00958  -0.1084  0.3990  1.0001  -2.5861   0.0000   0.0000   0.0000   0.3117
   9.000   1.4432   0.01614   0.01038  -0.1059  0.3804  1.0001  -2.6788   0.0000   0.0000   0.0000   0.3090
   9.250   1.4513   0.01712   0.01128  -0.1034  0.3627  1.0001  -2.7701   0.0000   0.0000   0.0000   0.3065
   9.500   1.4604   0.01813   0.01224  -0.1012  0.3453  1.0001  -2.8649   0.0000   0.0000   0.0000   0.3041
   9.750   1.4693   0.01920   0.01328  -0.0991  0.3281  1.0001  -2.9656   0.0000   0.0000   0.0000   0.3018
  10.000   1.4767   0.02042   0.01444  -0.0970  0.3116  1.0001  -3.0629   0.0000   0.0000   0.0000   0.2996
  10.250   1.4844   0.02167   0.01565  -0.0950  0.2953  1.0001  -3.1620   0.0000   0.0000   0.0000   0.2975
  10.500   1.4916   0.02301   0.01694  -0.0931  0.2791  1.0001  -3.2602   0.0000   0.0000   0.0000   0.2954
  11.000   1.5036   0.02593   0.01975  -0.0892  0.2456  1.0001  -3.4524   0.0000   0.0000   0.0000   0.2914
  11.250   1.5084   0.02753   0.02130  -0.0873  0.2303  1.0001  -3.5456   0.0000   0.0000   0.0000   0.2894
  11.500   1.5127   0.02918   0.02290  -0.0854  0.2152  1.0001  -3.6381   0.0000   0.0000   0.0000   0.2875
  11.750   1.5183   0.03078   0.02446  -0.0837  0.1993  1.0001  -3.7350   0.0000   0.0000   0.0000   0.2857
  12.000   1.5221   0.03254   0.02617  -0.0819  0.1856  1.0001  -3.8267   0.0000   0.0000   0.0000   0.2839
  12.250   1.5255   0.03436   0.02796  -0.0802  0.1733  1.0001  -3.9176   0.0000   0.0000   0.0000   0.2821
  12.500   1.5304   0.03612   0.02970  -0.0787  0.1606  1.0001  -4.0138   0.0000   0.0000   0.0000   0.2804
  13.000   1.5374   0.04002   0.03354  -0.0757  0.1363  1.0001  -4.1973   0.0000   0.0000   0.0000   0.2772
  13.250   1.5392   0.04219   0.03568  -0.0742  0.1260  1.0001  -4.2839   0.0000   0.0000   0.0000   0.2757
  13.500   1.5421   0.04431   0.03781  -0.0729  0.1161  1.0001  -4.3738   0.0000   0.0000   0.0000   0.2743
  13.750   1.5448   0.04651   0.04000  -0.0717  0.1063  1.0001  -4.4650   0.0000   0.0000   0.0000   0.2728
  14.250   1.5478   0.05126   0.04474  -0.0694  0.0901  1.0001  -4.6478   0.0000   0.0000   0.0000   0.2702
  14.500   1.5486   0.05379   0.04727  -0.0683  0.0836  1.0001  -4.7364   0.0000   0.0000   0.0000   0.2689
  14.750   1.5488   0.05643   0.04994  -0.0674  0.0779  1.0001  -4.8226   0.0000   0.0000   0.0000   0.2678
  15.000   1.5483   0.05921   0.05273  -0.0665  0.0729  1.0001  -4.9059   0.0000   0.0000   0.0000   0.2667
  15.250   1.5484   0.06195   0.05551  -0.0658  0.0681  1.0001  -4.9912   0.0000   0.0000   0.0000   0.2656
  15.500   1.5488   0.06472   0.05833  -0.0651  0.0638  1.0001  -5.0771   0.0000   0.0000   0.0000   0.2646
  15.750   1.5480   0.06767   0.06133  -0.0645  0.0600  1.0001  -5.1575   0.0000   0.0000   0.0000   0.2637
  16.000   1.5447   0.07099   0.06467  -0.0640  0.0568  1.0001  -5.2274   0.0000   0.0000   0.0000   0.2629
  16.250   1.5446   0.07398   0.06774  -0.0637  0.0533  1.0001  -5.3157   0.0000   0.0000   0.0000   0.2620
  16.500   1.5417   0.07735   0.07118  -0.0634  0.0504  1.0001  -5.3916   0.0000   0.0000   0.0000   0.2613
  16.750   1.5380   0.08085   0.07472  -0.0632  0.0478  1.0001  -5.4697   0.0000   0.0000   0.0000   0.2607
  17.000   1.5351   0.08432   0.07827  -0.0631  0.0453  1.0001  -5.5490   0.0000   0.0000   0.0000   0.2602
  17.250   1.5300   0.08812   0.08212  -0.0632  0.0432  1.0001  -5.6186   0.0000   0.0000   0.0000   0.2597
  17.500   1.5259   0.09186   0.08595  -0.0634  0.0411  1.0001  -5.6894   0.0000   0.0000   0.0000   0.2593
  17.750   1.5216   0.09567   0.08983  -0.0637  0.0393  1.0001  -5.7598   0.0000   0.0000   0.0000   0.2590
  18.000   1.5140   0.09995   0.09416  -0.0641  0.0380  1.0001  -5.8115   0.0000   0.0000   0.0000   0.2589
  18.250   1.5111   0.10361   0.09793  -0.0646  0.0363  1.0001  -5.8851   0.0000   0.0000   0.0000   0.2587
  18.500   1.5063   0.10760   0.10198  -0.0652  0.0351  1.0001  -5.9518   0.0000   0.0000   0.0000   0.2587
  18.750   1.4985   0.11197   0.10637  -0.0660  0.0341  1.0001  -6.0049   0.0000   0.0000   0.0000   0.2588
  19.000   1.4965   0.11564   0.11017  -0.0668  0.0329  1.0001  -6.0861   0.0000   0.0000   0.0000   0.2587
  19.250   1.4935   0.11947   0.11409  -0.0677  0.0319  1.0001  -6.1621   0.0000   0.0000   0.0000   0.2588
  19.500   1.4899   0.12337   0.11804  -0.0687  0.0311  1.0001  -6.2353   0.0000   0.0000   0.0000   0.2590
  19.750   1.4858   0.12718   0.12185  -0.0697  0.0303  1.0001  -6.3043   0.0000   0.0000   0.0000   0.2591
  20.000   1.4844   0.13080   0.12559  -0.0708  0.0296  1.0001  -6.3836   0.0000   0.0000   0.0000   0.2592


