xflr5 v6.61

 Calculated polar for: QX0026

 1 1 Reynolds number fixed          Mach number fixed         

 xtrf =   1.000 (top)        1.000 (bottom)
 Mach =   0.000     Re =     0.460 e 6     Ncrit =   9.000

  alpha     CL        CD       CDp       Cm    Top Xtr Bot Xtr   Cpmin    Chinge    XCp    
 ------- -------- --------- --------- -------- ------- ------- -------- --------- ---------
 -10.000  -0.4872   0.02730   0.02223  -0.1241  0.8253  0.0266  -5.6893   0.0000   0.0000   0.0000  -0.0240
  -9.750  -0.4661   0.02613   0.02092  -0.1242  0.8216  0.0272  -5.5084   0.0000   0.0000   0.0000  -0.0358
  -9.500  -0.4454   0.02476   0.01931  -0.1242  0.8186  0.0279  -5.3487   0.0000   0.0000   0.0000  -0.0484
  -9.250  -0.4238   0.02346   0.01770  -0.1242  0.8153  0.0288  -5.1933   0.0000   0.0000   0.0000  -0.0629
  -9.000  -0.4018   0.02210   0.01604  -0.1242  0.8119  0.0295  -5.0373   0.0000   0.0000   0.0000  -0.0792
  -8.750  -0.3778   0.02104   0.01495  -0.1242  0.8091  0.0303  -4.8384   0.0000   0.0000   0.0000  -0.0993
  -8.500  -0.3526   0.02032   0.01414  -0.1243  0.8062  0.0310  -4.6361   0.0000   0.0000   0.0000  -0.1236
  -8.250  -0.3272   0.01957   0.01329  -0.1243  0.8030  0.0318  -4.4421   0.0000   0.0000   0.0000  -0.1518
  -8.000  -0.3014   0.01882   0.01236  -0.1242  0.8002  0.0328  -4.2562   0.0000   0.0000   0.0000  -0.1850
  -7.750  -0.2753   0.01816   0.01149  -0.1242  0.7976  0.0338  -4.0777   0.0000   0.0000   0.0000  -0.2252
  -7.500  -0.2497   0.01733   0.01070  -0.1243  0.7945  0.0349  -3.8976   0.0000   0.0000   0.0000  -0.2730
  -7.250  -0.2229   0.01682   0.01015  -0.1243  0.7917  0.0360  -3.7154   0.0000   0.0000   0.0000  -0.3348
  -7.000  -0.1959   0.01630   0.00950  -0.1244  0.7893  0.0373  -3.5430   0.0000   0.0000   0.0000  -0.4141
  -6.750  -0.1690   0.01577   0.00887  -0.1244  0.7863  0.0385  -3.3764   0.0000   0.0000   0.0000  -0.5185
  -6.500  -0.1427   0.01514   0.00827  -0.1244  0.7834  0.0399  -3.2087   0.0000   0.0000   0.0000  -0.6589
  -6.250  -0.1151   0.01478   0.00786  -0.1245  0.7809  0.0417  -3.0474   0.0000   0.0000   0.0000  -0.8752
  -6.000  -0.0876   0.01437   0.00735  -0.1245  0.7786  0.0437  -2.8956   0.0000   0.0000   0.0000  -1.2264
  -5.750  -0.0606   0.01393   0.00696  -0.1246  0.7753  0.0457  -2.7398   0.0000   0.0000   0.0000  -1.8805
  -5.500  -0.0328   0.01362   0.00659  -0.1247  0.7724  0.0480  -2.5879   0.0000   0.0000   0.0000  -3.6891
  -5.250  -0.0053   0.01319   0.00614  -0.1248  0.7700  0.0506  -2.4499   0.0000   0.0000   0.0000  -24.0679
  -5.000   0.0228   0.01297   0.00588  -0.1249  0.7672  0.0538  -2.3122   0.0000   0.0000   0.0000   5.8949
  -4.750   0.0503   0.01261   0.00556  -0.1250  0.7640  0.0576  -2.1763   0.0000   0.0000   0.0000   2.8069
  -4.500   0.0784   0.01230   0.00524  -0.1252  0.7614  0.0619  -2.0426   0.0000   0.0000   0.0000   1.8904
  -4.250   0.1069   0.01205   0.00496  -0.1254  0.7592  0.0675  -1.9091   0.0000   0.0000   0.0000   1.4529
  -4.000   0.1348   0.01180   0.00476  -0.1255  0.7560  0.0752  -1.7784   0.0000   0.0000   0.0000   1.2037
  -3.750   0.1630   0.01155   0.00454  -0.1257  0.7530  0.0865  -1.6575   0.0000   0.0000   0.0000   1.0382
  -3.500   0.1915   0.01129   0.00434  -0.1259  0.7506  0.1039  -1.5394   0.0000   0.0000   0.0000   0.9211
  -3.250   0.2200   0.01107   0.00420  -0.1262  0.7482  0.1275  -1.4220   0.0000   0.0000   0.0000   0.8343
  -3.000   0.2480   0.01086   0.00410  -0.1264  0.7448  0.1540  -1.3065   0.0000   0.0000   0.0000   0.7682
  -2.750   0.2764   0.01066   0.00399  -0.1266  0.7419  0.1837  -1.1918   0.0000   0.0000   0.0000   0.7150
  -2.500   0.3052   0.01046   0.00387  -0.1269  0.7396  0.2188  -1.0791   0.0000   0.0000   0.0000   0.6713
  -2.250   0.3332   0.01026   0.00382  -0.1271  0.7364  0.2630  -0.9781   0.0000   0.0000   0.0000   0.6359
  -2.000   0.3613   0.01004   0.00378  -0.1273  0.7330  0.3171  -0.8790   0.0000   0.0000   0.0000   0.6059
  -1.750   0.3899   0.00984   0.00371  -0.1276  0.7302  0.3705  -0.7818   0.0000   0.0000   0.0000   0.5798
  -1.500   0.4182   0.00967   0.00369  -0.1278  0.7272  0.4249  -0.7858   0.0000   0.0000   0.0000   0.5574
  -1.000   0.4741   0.00933   0.00369  -0.1280  0.7206  0.5441  -0.8180   0.0000   0.0000   0.0000   0.5206
  -0.750   0.5026   0.00920   0.00369  -0.1281  0.7181  0.5999  -0.8369   0.0000   0.0000   0.0000   0.5050
  -0.500   0.5295   0.00909   0.00377  -0.1279  0.7140  0.6539  -0.8558   0.0000   0.0000   0.0000   0.4912
  -0.250   0.5574   0.00900   0.00376  -0.1278  0.7104  0.6996  -0.8755   0.0000   0.0000   0.0000   0.4784
   0.000   0.5852   0.00893   0.00375  -0.1277  0.7069  0.7375  -0.8952   0.0000   0.0000   0.0000   0.4669
   0.250   0.6117   0.00884   0.00378  -0.1273  0.7025  0.7737  -0.9141   0.0000   0.0000   0.0000   0.4564
   0.500   0.6385   0.00875   0.00377  -0.1269  0.6992  0.8125  -0.9356   0.0000   0.0000   0.0000   0.4466
   0.750   0.6637   0.00867   0.00381  -0.1261  0.6956  0.8564  -0.9573   0.0000   0.0000   0.0000   0.4375
   1.000   0.6872   0.00856   0.00382  -0.1248  0.6913  0.9109  -0.9783   0.0000   0.0000   0.0000   0.4287
   1.250   0.7256   0.00846   0.00371  -0.1268  0.6877  0.9752  -1.0079   0.0000   0.0000   0.0000   0.4215
   1.500   0.7598   0.00848   0.00373  -0.1283  0.6828  1.0001  -1.0347   0.0000   0.0000   0.0000   0.4153
   1.750   0.7883   0.00852   0.00371  -0.1285  0.6786  1.0001  -1.0606   0.0000   0.0000   0.0000   0.4091
   2.000   0.8162   0.00858   0.00373  -0.1286  0.6742  1.0001  -1.0884   0.0000   0.0000   0.0000   0.4033
   2.250   0.8441   0.00862   0.00375  -0.1287  0.6692  1.0001  -1.1164   0.0000   0.0000   0.0000   0.3978
   2.500   0.8724   0.00868   0.00376  -0.1289  0.6648  1.0001  -1.1450   0.0000   0.0000   0.0000   0.3927
   2.750   0.8999   0.00874   0.00381  -0.1289  0.6595  1.0001  -1.1737   0.0000   0.0000   0.0000   0.3879
   3.000   0.9280   0.00879   0.00382  -0.1290  0.6545  1.0001  -1.2044   0.0000   0.0000   0.0000   0.3834
   3.250   0.9551   0.00884   0.00387  -0.1289  0.6480  1.0001  -1.2377   0.0000   0.0000   0.0000   0.3790
   3.500   0.9826   0.00890   0.00392  -0.1289  0.6422  1.0001  -1.2716   0.0000   0.0000   0.0000   0.3749
   3.750   1.0100   0.00897   0.00398  -0.1289  0.6365  1.0001  -1.3065   0.0000   0.0000   0.0000   0.3710
   4.000   1.0372   0.00906   0.00407  -0.1288  0.6305  1.0001  -1.3414   0.0000   0.0000   0.0000   0.3673
   4.250   1.0645   0.00913   0.00411  -0.1288  0.6241  1.0001  -1.3767   0.0000   0.0000   0.0000   0.3637
   4.500   1.0908   0.00922   0.00423  -0.1286  0.6163  1.0001  -1.4184   0.0000   0.0000   0.0000   0.3603
   4.750   1.1174   0.00931   0.00432  -0.1284  0.6090  1.0001  -1.4624   0.0000   0.0000   0.0000   0.3570
   5.000   1.1437   0.00942   0.00440  -0.1282  0.6010  1.0001  -1.5064   0.0000   0.0000   0.0000   0.3538
   5.250   1.1694   0.00954   0.00451  -0.1279  0.5918  1.0001  -1.5503   0.0000   0.0000   0.0000   0.3508
   5.500   1.1947   0.00968   0.00465  -0.1275  0.5818  1.0001  -1.5939   0.0000   0.0000   0.0000   0.3478
   5.750   1.2197   0.00984   0.00480  -0.1271  0.5715  1.0001  -1.6378   0.0000   0.0000   0.0000   0.3449
   6.000   1.2443   0.01003   0.00498  -0.1266  0.5606  1.0001  -1.6974   0.0000   0.0000   0.0000   0.3421
   6.250   1.2685   0.01022   0.00517  -0.1261  0.5496  1.0001  -1.7609   0.0000   0.0000   0.0000   0.3394
   6.500   1.2919   0.01045   0.00537  -0.1254  0.5376  1.0001  -1.8263   0.0000   0.0000   0.0000   0.3367
   6.750   1.3146   0.01069   0.00561  -0.1246  0.5241  1.0001  -1.8991   0.0000   0.0000   0.0000   0.3340
   7.000   1.3356   0.01100   0.00587  -0.1235  0.5076  1.0001  -1.9763   0.0000   0.0000   0.0000   0.3313
   7.250   1.3543   0.01138   0.00619  -0.1220  0.4878  1.0001  -2.0542   0.0000   0.0000   0.0000   0.3286
   7.500   1.3716   0.01182   0.00655  -0.1203  0.4677  1.0001  -2.1305   0.0000   0.0000   0.0000   0.3258
   7.750   1.3876   0.01230   0.00697  -0.1184  0.4491  1.0001  -2.2063   0.0000   0.0000   0.0000   0.3231
   8.000   1.4014   0.01280   0.00741  -0.1161  0.4311  1.0001  -2.3031   0.0000   0.0000   0.0000   0.3202
   8.250   1.4134   0.01338   0.00793  -0.1136  0.4132  1.0001  -2.4005   0.0000   0.0000   0.0000   0.3173
   8.500   1.4240   0.01408   0.00856  -0.1111  0.3941  1.0001  -2.4955   0.0000   0.0000   0.0000   0.3145
   8.750   1.4338   0.01488   0.00929  -0.1086  0.3753  1.0001  -2.5894   0.0000   0.0000   0.0000   0.3118
   9.000   1.4441   0.01573   0.01008  -0.1063  0.3572  1.0001  -2.6856   0.0000   0.0000   0.0000   0.3093
   9.250   1.4543   0.01665   0.01095  -0.1041  0.3401  1.0001  -2.7823   0.0000   0.0000   0.0000   0.3069
   9.500   1.4639   0.01767   0.01191  -0.1021  0.3228  1.0001  -2.8808   0.0000   0.0000   0.0000   0.3045
   9.750   1.4732   0.01875   0.01294  -0.1001  0.3057  1.0001  -2.9830   0.0000   0.0000   0.0000   0.3023
  10.000   1.4814   0.01995   0.01408  -0.0981  0.2896  1.0001  -3.0830   0.0000   0.0000   0.0000   0.3001
  10.250   1.4898   0.02119   0.01526  -0.0962  0.2727  1.0001  -3.1843   0.0000   0.0000   0.0000   0.2980
  10.500   1.4977   0.02249   0.01651  -0.0943  0.2551  1.0001  -3.2852   0.0000   0.0000   0.0000   0.2959
  10.750   1.5039   0.02393   0.01788  -0.0923  0.2388  1.0001  -3.3821   0.0000   0.0000   0.0000   0.2939
  11.000   1.5096   0.02544   0.01933  -0.0904  0.2239  1.0001  -3.4778   0.0000   0.0000   0.0000   0.2919
  11.250   1.5167   0.02687   0.02073  -0.0887  0.2079  1.0001  -3.5789   0.0000   0.0000   0.0000   0.2900
  11.500   1.5224   0.02843   0.02223  -0.0869  0.1925  1.0001  -3.6761   0.0000   0.0000   0.0000   0.2881
  11.750   1.5267   0.03012   0.02385  -0.0851  0.1799  1.0001  -3.7697   0.0000   0.0000   0.0000   0.2863
  12.000   1.5330   0.03168   0.02541  -0.0834  0.1676  1.0001  -3.8699   0.0000   0.0000   0.0000   0.2845
  12.250   1.5381   0.03335   0.02704  -0.0818  0.1552  1.0001  -3.9672   0.0000   0.0000   0.0000   0.2828
  12.500   1.5431   0.03508   0.02874  -0.0802  0.1427  1.0001  -4.0644   0.0000   0.0000   0.0000   0.2811
  12.750   1.5465   0.03699   0.03062  -0.0786  0.1319  1.0001  -4.1568   0.0000   0.0000   0.0000   0.2794
  13.000   1.5508   0.03888   0.03249  -0.0772  0.1216  1.0001  -4.2520   0.0000   0.0000   0.0000   0.2778
  13.250   1.5541   0.04089   0.03448  -0.0758  0.1118  1.0001  -4.3445   0.0000   0.0000   0.0000   0.2763
  13.500   1.5579   0.04290   0.03648  -0.0745  0.1022  1.0001  -4.4390   0.0000   0.0000   0.0000   0.2748
  13.750   1.5609   0.04504   0.03861  -0.0732  0.0933  1.0001  -4.5348   0.0000   0.0000   0.0000   0.2734
  14.000   1.5629   0.04732   0.04087  -0.0720  0.0859  1.0001  -4.6295   0.0000   0.0000   0.0000   0.2720
  14.250   1.5645   0.04966   0.04322  -0.0708  0.0796  1.0001  -4.7230   0.0000   0.0000   0.0000   0.2706
  14.500   1.5664   0.05204   0.04562  -0.0698  0.0739  1.0001  -4.8172   0.0000   0.0000   0.0000   0.2694
  14.750   1.5684   0.05446   0.04807  -0.0688  0.0688  1.0001  -4.9123   0.0000   0.0000   0.0000   0.2681
  15.000   1.5703   0.05694   0.05059  -0.0679  0.0643  1.0001  -5.0065   0.0000   0.0000   0.0000   0.2670
  15.250   1.5714   0.05956   0.05324  -0.0672  0.0603  1.0001  -5.0975   0.0000   0.0000   0.0000   0.2659
  15.500   1.5706   0.06241   0.05612  -0.0664  0.0567  1.0001  -5.1809   0.0000   0.0000   0.0000   0.2648
  15.750   1.5718   0.06509   0.05885  -0.0658  0.0531  1.0001  -5.2714   0.0000   0.0000   0.0000   0.2638
  16.000   1.5715   0.06799   0.06182  -0.0652  0.0500  1.0001  -5.3587   0.0000   0.0000   0.0000   0.2629
  16.250   1.5685   0.07127   0.06513  -0.0647  0.0473  1.0001  -5.4377   0.0000   0.0000   0.0000   0.2621
  16.500   1.5690   0.07420   0.06813  -0.0644  0.0443  1.0001  -5.5363   0.0000   0.0000   0.0000   0.2613
  16.750   1.5649   0.07773   0.07171  -0.0641  0.0421  1.0001  -5.6145   0.0000   0.0000   0.0000   0.2606
  17.000   1.5631   0.08098   0.07504  -0.0640  0.0397  1.0001  -5.7033   0.0000   0.0000   0.0000   0.2600
  17.250   1.5566   0.08491   0.07902  -0.0639  0.0380  1.0001  -5.7675   0.0000   0.0000   0.0000   0.2595
  17.500   1.5546   0.08831   0.08251  -0.0640  0.0360  1.0001  -5.8528   0.0000   0.0000   0.0000   0.2590
  17.750   1.5478   0.09241   0.08667  -0.0642  0.0346  1.0001  -5.9144   0.0000   0.0000   0.0000   0.2587
  18.000   1.5424   0.09637   0.09072  -0.0645  0.0333  1.0001  -5.9801   0.0000   0.0000   0.0000   0.2584
  18.250   1.5387   0.10015   0.09459  -0.0649  0.0319  1.0001  -6.0562   0.0000   0.0000   0.0000   0.2582
  18.500   1.5320   0.10435   0.09885  -0.0656  0.0310  1.0001  -6.1204   0.0000   0.0000   0.0000   0.2581
  18.750   1.5226   0.10897   0.10353  -0.0663  0.0301  1.0001  -6.1663   0.0000   0.0000   0.0000   0.2583
  19.000   1.5196   0.11276   0.10743  -0.0671  0.0292  1.0001  -6.2458   0.0000   0.0000   0.0000   0.2582
  19.250   1.5153   0.11676   0.11153  -0.0680  0.0284  1.0001  -6.3176   0.0000   0.0000   0.0000   0.2583
  19.500   1.5106   0.12086   0.11571  -0.0690  0.0277  1.0001  -6.3865   0.0000   0.0000   0.0000   0.2585
  19.750   1.5049   0.12512   0.12003  -0.0702  0.0272  1.0001  -6.4476   0.0000   0.0000   0.0000   0.2588
  20.000   1.4978   0.12953   0.12445  -0.0715  0.0266  1.0001  -6.4975   0.0000   0.0000   0.0000   0.2592


