xflr5 v6.61

 Calculated polar for: QX0026

 1 1 Reynolds number fixed          Mach number fixed         

 xtrf =   1.000 (top)        1.000 (bottom)
 Mach =   0.000     Re =     0.240 e 6     Ncrit =   9.000

  alpha     CL        CD       CDp       Cm    Top Xtr Bot Xtr   Cpmin    Chinge    XCp    
 ------- -------- --------- --------- -------- ------- ------- -------- --------- ---------
  -9.000  -0.2888   0.04870   0.04461  -0.1267  0.8639  0.0487  -3.4659   0.0000   0.0000   0.0000  -0.2139
  -8.750  -0.2724   0.04719   0.04311  -0.1268  0.8599  0.0492  -3.3321   0.0000   0.0000   0.0000  -0.2413
  -8.500  -0.2534   0.04647   0.04240  -0.1268  0.8560  0.0502  -3.1686   0.0000   0.0000   0.0000  -0.2767
  -8.250  -0.2905   0.03137   0.02563  -0.1310  0.8501  0.0442  -3.8325   0.0000   0.0000   0.0000  -0.2249
  -8.000  -0.2684   0.03029   0.02446  -0.1310  0.8468  0.0455  -3.6719   0.0000   0.0000   0.0000  -0.2630
  -7.750  -0.2493   0.02815   0.02191  -0.1308  0.8433  0.0467  -3.5882   0.0000   0.0000   0.0000  -0.3008
  -7.500  -0.2289   0.02609   0.01939  -0.1306  0.8393  0.0476  -3.5121   0.0000   0.0000   0.0000  -0.3478
  -7.250  -0.2060   0.02444   0.01727  -0.1302  0.8366  0.0486  -3.4256   0.0000   0.0000   0.0000  -0.4117
  -7.000  -0.1816   0.02336   0.01621  -0.1302  0.8329  0.0498  -3.2760   0.0000   0.0000   0.0000  -0.4996
  -6.750  -0.1560   0.02262   0.01537  -0.1301  0.8295  0.0518  -3.1250   0.0000   0.0000   0.0000  -0.6199
  -6.500  -0.1300   0.02177   0.01413  -0.1299  0.8271  0.0539  -3.0004   0.0000   0.0000   0.0000  -0.7906
  -6.250  -0.1050   0.02088   0.01333  -0.1298  0.8231  0.0557  -2.8572   0.0000   0.0000   0.0000  -1.0354
  -6.000  -0.0786   0.02021   0.01256  -0.1297  0.8200  0.0579  -2.7285   0.0000   0.0000   0.0000  -1.4619
  -5.750  -0.0517   0.01946   0.01168  -0.1295  0.8177  0.0605  -2.6023   0.0000   0.0000   0.0000  -2.3451
  -5.500  -0.0263   0.01906   0.01131  -0.1294  0.8135  0.0637  -2.4655   0.0000   0.0000   0.0000  -4.8435
  -5.250   0.0002   0.01847   0.01068  -0.1292  0.8104  0.0672  -2.3378   0.0000   0.0000   0.0000  541.4917
  -5.000   0.0278   0.01799   0.01013  -0.1292  0.8081  0.0712  -2.2183   0.0000   0.0000   0.0000   5.0424
  -4.750   0.0528   0.01762   0.00984  -0.1290  0.8037  0.0759  -2.1002   0.0000   0.0000   0.0000   2.7652
  -4.500   0.0797   0.01720   0.00942  -0.1289  0.8007  0.0817  -1.9802   0.0000   0.0000   0.0000   1.9129
  -4.250   0.1075   0.01678   0.00899  -0.1289  0.7985  0.0891  -1.8588   0.0000   0.0000   0.0000   1.4811
  -4.000   0.1327   0.01656   0.00883  -0.1287  0.7940  0.0988  -1.7445   0.0000   0.0000   0.0000   1.2441
  -3.750   0.1599   0.01619   0.00852  -0.1287  0.7910  0.1124  -1.6330   0.0000   0.0000   0.0000   1.0739
  -3.500   0.1881   0.01580   0.00818  -0.1288  0.7889  0.1337  -1.5238   0.0000   0.0000   0.0000   0.9499
  -3.250   0.2131   0.01561   0.00815  -0.1287  0.7842  0.1614  -1.4201   0.0000   0.0000   0.0000   0.8661
  -3.000   0.2406   0.01532   0.00797  -0.1288  0.7813  0.1975  -1.3099   0.0000   0.0000   0.0000   0.7952
  -2.750   0.2691   0.01498   0.00778  -0.1290  0.7791  0.2416  -1.1980   0.0000   0.0000   0.0000   0.7376
  -2.500   0.2939   0.01487   0.00790  -0.1289  0.7744  0.2959  -1.0961   0.0000   0.0000   0.0000   0.6952
  -2.250   0.3214   0.01461   0.00784  -0.1290  0.7714  0.3615  -0.9969   0.0000   0.0000   0.0000   0.6567
  -2.000   0.3499   0.01433   0.00774  -0.1291  0.7692  0.4286  -0.8973   0.0000   0.0000   0.0000   0.6233
  -1.750   0.3740   0.01430   0.00796  -0.1287  0.7643  0.4927  -0.8075   0.0000   0.0000   0.0000   0.5975
  -1.500   0.4012   0.01411   0.00794  -0.1285  0.7612  0.5600  -0.7620   0.0000   0.0000   0.0000   0.5728
  -1.250   0.4288   0.01391   0.00790  -0.1281  0.7589  0.6234  -0.7786   0.0000   0.0000   0.0000   0.5506
  -1.000   0.4521   0.01398   0.00817  -0.1273  0.7537  0.6800  -0.7941   0.0000   0.0000   0.0000   0.5328
  -0.750   0.4787   0.01386   0.00814  -0.1267  0.7508  0.7305  -0.8128   0.0000   0.0000   0.0000   0.5153
  -0.500   0.5038   0.01380   0.00818  -0.1258  0.7476  0.7755  -0.8306   0.0000   0.0000   0.0000   0.4998
  -0.250   0.5258   0.01382   0.00833  -0.1244  0.7431  0.8209  -0.8465   0.0000   0.0000   0.0000   0.4861
   0.000   0.5496   0.01366   0.00824  -0.1229  0.7403  0.8722  -0.8642   0.0000   0.0000   0.0000   0.4727
   0.250   0.5773   0.01362   0.00827  -0.1224  0.7362  0.9321  -0.8834   0.0000   0.0000   0.0000   0.4606
   0.500   0.6263   0.01350   0.00809  -0.1267  0.7321  1.0001  -0.9182   0.0000   0.0000   0.0000   0.4505
   0.750   0.6568   0.01340   0.00787  -0.1272  0.7292  1.0001  -0.9430   0.0000   0.0000   0.0000   0.4415
   1.000   0.6812   0.01361   0.00805  -0.1269  0.7238  1.0001  -0.9633   0.0000   0.0000   0.0000   0.4337
   1.250   0.7105   0.01361   0.00796  -0.1272  0.7204  1.0001  -0.9874   0.0000   0.0000   0.0000   0.4261
   1.500   0.7389   0.01366   0.00795  -0.1274  0.7168  1.0001  -1.0108   0.0000   0.0000   0.0000   0.4191
   2.000   0.7967   0.01362   0.00778  -0.1277  0.7085  1.0001  -1.0656   0.0000   0.0000   0.0000   0.4063
   2.250   0.8213   0.01377   0.00794  -0.1273  0.7022  1.0001  -1.0909   0.0000   0.0000   0.0000   0.4006
   2.500   0.8519   0.01367   0.00777  -0.1277  0.6987  1.0001  -1.1210   0.0000   0.0000   0.0000   0.3952
   2.750   0.8773   0.01384   0.00794  -0.1274  0.6932  1.0001  -1.1478   0.0000   0.0000   0.0000   0.3902
   3.000   0.9069   0.01378   0.00784  -0.1276  0.6891  1.0001  -1.1793   0.0000   0.0000   0.0000   0.3853
   3.250   0.9335   0.01384   0.00790  -0.1275  0.6835  1.0001  -1.2120   0.0000   0.0000   0.0000   0.3808
   3.500   0.9628   0.01377   0.00778  -0.1276  0.6786  1.0001  -1.2471   0.0000   0.0000   0.0000   0.3765
   3.750   0.9890   0.01382   0.00785  -0.1273  0.6724  1.0001  -1.2807   0.0000   0.0000   0.0000   0.3724
   4.000   1.0187   0.01372   0.00770  -0.1276  0.6674  1.0001  -1.3178   0.0000   0.0000   0.0000   0.3685
   4.250   1.0440   0.01380   0.00780  -0.1271  0.6605  1.0001  -1.3512   0.0000   0.0000   0.0000   0.3647
   4.500   1.0748   0.01368   0.00763  -0.1275  0.6557  1.0001  -1.3959   0.0000   0.0000   0.0000   0.3612
   4.750   1.0989   0.01378   0.00778  -0.1269  0.6479  1.0001  -1.4365   0.0000   0.0000   0.0000   0.3577
   5.000   1.1253   0.01381   0.00782  -0.1266  0.6409  1.0001  -1.4804   0.0000   0.0000   0.0000   0.3544
   5.250   1.1543   0.01373   0.00771  -0.1267  0.6346  1.0001  -1.5274   0.0000   0.0000   0.0000   0.3513
   5.500   1.1782   0.01383   0.00786  -0.1261  0.6261  1.0001  -1.5694   0.0000   0.0000   0.0000   0.3482
   5.750   1.2030   0.01391   0.00796  -0.1256  0.6178  1.0001  -1.6129   0.0000   0.0000   0.0000   0.3452
   6.000   1.2282   0.01394   0.00800  -0.1250  0.6087  1.0001  -1.6684   0.0000   0.0000   0.0000   0.3423
   6.250   1.2528   0.01397   0.00805  -0.1244  0.5986  1.0001  -1.7324   0.0000   0.0000   0.0000   0.3394
   6.500   1.2768   0.01405   0.00813  -0.1237  0.5879  1.0001  -1.7976   0.0000   0.0000   0.0000   0.3366
   6.750   1.3002   0.01418   0.00827  -0.1229  0.5769  1.0001  -1.8671   0.0000   0.0000   0.0000   0.3339
   7.000   1.3229   0.01435   0.00846  -0.1220  0.5653  1.0001  -1.9455   0.0000   0.0000   0.0000   0.3312
   7.250   1.3447   0.01456   0.00867  -0.1210  0.5530  1.0001  -2.0258   0.0000   0.0000   0.0000   0.3286
   7.500   1.3657   0.01479   0.00889  -0.1199  0.5395  1.0001  -2.1080   0.0000   0.0000   0.0000   0.3260
   7.750   1.3844   0.01506   0.00916  -0.1183  0.5237  1.0001  -2.1873   0.0000   0.0000   0.0000   0.3233
   8.000   1.4009   0.01541   0.00946  -0.1164  0.5059  1.0001  -2.2833   0.0000   0.0000   0.0000   0.3205
   8.250   1.4151   0.01585   0.00986  -0.1142  0.4874  1.0001  -2.3856   0.0000   0.0000   0.0000   0.3177
   8.500   1.4270   0.01634   0.01030  -0.1116  0.4697  1.0001  -2.4839   0.0000   0.0000   0.0000   0.3148
   8.750   1.4368   0.01693   0.01085  -0.1087  0.4520  1.0001  -2.5780   0.0000   0.0000   0.0000   0.3118
   9.000   1.4461   0.01763   0.01150  -0.1059  0.4343  1.0001  -2.6714   0.0000   0.0000   0.0000   0.3090
   9.250   1.4542   0.01845   0.01226  -0.1032  0.4166  1.0001  -2.7626   0.0000   0.0000   0.0000   0.3063
   9.500   1.4612   0.01939   0.01315  -0.1005  0.3981  1.0001  -2.8519   0.0000   0.0000   0.0000   0.3037
   9.750   1.4677   0.02043   0.01416  -0.0979  0.3801  1.0001  -2.9413   0.0000   0.0000   0.0000   0.3011
  10.000   1.4734   0.02160   0.01526  -0.0953  0.3628  1.0001  -3.0336   0.0000   0.0000   0.0000   0.2987
  10.250   1.4793   0.02283   0.01645  -0.0930  0.3455  1.0001  -3.1268   0.0000   0.0000   0.0000   0.2964
  10.500   1.4849   0.02414   0.01773  -0.0907  0.3286  1.0001  -3.2199   0.0000   0.0000   0.0000   0.2942
  10.750   1.4893   0.02558   0.01911  -0.0885  0.3125  1.0001  -3.3101   0.0000   0.0000   0.0000   0.2920
  11.000   1.4941   0.02705   0.02057  -0.0864  0.2965  1.0001  -3.4020   0.0000   0.0000   0.0000   0.2899
  11.250   1.4977   0.02865   0.02212  -0.0843  0.2816  1.0001  -3.4906   0.0000   0.0000   0.0000   0.2879
  11.500   1.5021   0.03025   0.02371  -0.0824  0.2654  1.0001  -3.5820   0.0000   0.0000   0.0000   0.2860
  11.750   1.5047   0.03201   0.02544  -0.0804  0.2501  1.0001  -3.6685   0.0000   0.0000   0.0000   0.2841
  12.000   1.5061   0.03390   0.02728  -0.0784  0.2353  1.0001  -3.7513   0.0000   0.0000   0.0000   0.2822
  12.250   1.5080   0.03582   0.02918  -0.0766  0.2202  1.0001  -3.8359   0.0000   0.0000   0.0000   0.2804
  12.500   1.5093   0.03785   0.03118  -0.0749  0.2053  1.0001  -3.9190   0.0000   0.0000   0.0000   0.2787
  12.750   1.5102   0.03998   0.03328  -0.0733  0.1908  1.0001  -4.0006   0.0000   0.0000   0.0000   0.2771
  13.000   1.5105   0.04224   0.03550  -0.0717  0.1776  1.0001  -4.0800   0.0000   0.0000   0.0000   0.2755
  13.250   1.5110   0.04455   0.03779  -0.0703  0.1648  1.0001  -4.1598   0.0000   0.0000   0.0000   0.2740
  13.500   1.5123   0.04686   0.04010  -0.0690  0.1519  1.0001  -4.2420   0.0000   0.0000   0.0000   0.2726
  13.750   1.5113   0.04944   0.04265  -0.0677  0.1407  1.0001  -4.3159   0.0000   0.0000   0.0000   0.2712
  14.000   1.5107   0.05205   0.04525  -0.0665  0.1299  1.0001  -4.3937   0.0000   0.0000   0.0000   0.2699
  14.250   1.5094   0.05479   0.04798  -0.0654  0.1203  1.0001  -4.4712   0.0000   0.0000   0.0000   0.2687
  14.500   1.5078   0.05763   0.05082  -0.0645  0.1117  1.0001  -4.5471   0.0000   0.0000   0.0000   0.2676
  14.750   1.5066   0.06047   0.05367  -0.0636  0.1038  1.0001  -4.6240   0.0000   0.0000   0.0000   0.2665
  15.000   1.5055   0.06337   0.05659  -0.0628  0.0966  1.0001  -4.7002   0.0000   0.0000   0.0000   0.2654
  15.250   1.5032   0.06646   0.05970  -0.0622  0.0905  1.0001  -4.7716   0.0000   0.0000   0.0000   0.2645
  15.500   1.5001   0.06969   0.06294  -0.0616  0.0852  1.0001  -4.8387   0.0000   0.0000   0.0000   0.2636
  15.750   1.4982   0.07285   0.06615  -0.0611  0.0800  1.0001  -4.9092   0.0000   0.0000   0.0000   0.2628
  16.000   1.4959   0.07608   0.06943  -0.0607  0.0753  1.0001  -4.9765   0.0000   0.0000   0.0000   0.2620
  16.250   1.4925   0.07947   0.07286  -0.0604  0.0713  1.0001  -5.0403   0.0000   0.0000   0.0000   0.2613
  16.500   1.4883   0.08299   0.07638  -0.0602  0.0677  1.0001  -5.1063   0.0000   0.0000   0.0000   0.2607
  16.750   1.4868   0.08630   0.07979  -0.0601  0.0638  1.0001  -5.1798   0.0000   0.0000   0.0000   0.2601
  17.000   1.4836   0.08982   0.08336  -0.0601  0.0606  1.0001  -5.2491   0.0000   0.0000   0.0000   0.2596
  17.250   1.4806   0.09334   0.08691  -0.0603  0.0576  1.0001  -5.3235   0.0000   0.0000   0.0000   0.2592
  17.500   1.4783   0.09680   0.09046  -0.0604  0.0547  1.0001  -5.3964   0.0000   0.0000   0.0000   0.2588
  17.750   1.4756   0.10027   0.09392  -0.0607  0.0523  1.0001  -5.4712   0.0000   0.0000   0.0000   0.2584
  18.000   1.4740   0.10367   0.09743  -0.0609  0.0499  1.0001  -5.5439   0.0000   0.0000   0.0000   0.2580
  18.250   1.4729   0.10696   0.10075  -0.0613  0.0479  1.0001  -5.6239   0.0000   0.0000   0.0000   0.2577
  18.500   1.4725   0.11013   0.10399  -0.0616  0.0460  1.0001  -5.7021   0.0000   0.0000   0.0000   0.2573
  18.750   1.4726   0.11332   0.10726  -0.0621  0.0442  1.0001  -5.7858   0.0000   0.0000   0.0000   0.2570
  19.000   1.4756   0.11580   0.10968  -0.0622  0.0427  1.0001  -5.8978   0.0000   0.0000   0.0000   0.2564
  19.250   1.4752   0.11917   0.11320  -0.0629  0.0413  1.0001  -5.9779   0.0000   0.0000   0.0000   0.2562
  19.500   1.4761   0.12227   0.11639  -0.0636  0.0399  1.0001  -6.0703   0.0000   0.0000   0.0000   0.2560
  19.750   1.4805   0.12457   0.11865  -0.0640  0.0387  1.0001  -6.1910   0.0000   0.0000   0.0000   0.2555
  20.000   1.4827   0.12732   0.12149  -0.0645  0.0376  1.0001  -6.2889   0.0000   0.0000   0.0000   0.2551


