xflr5 v6.61

 Calculated polar for: QX0026

 1 1 Reynolds number fixed          Mach number fixed         

 xtrf =   1.000 (top)        1.000 (bottom)
 Mach =   0.000     Re =     0.260 e 6     Ncrit =   9.000

  alpha     CL        CD       CDp       Cm    Top Xtr Bot Xtr   Cpmin    Chinge    XCp    
 ------- -------- --------- --------- -------- ------- ------- -------- --------- ---------
  -9.500  -0.3171   0.05119   0.04730  -0.1234  0.8651  0.0431  -3.7370   0.0000   0.0000   0.0000  -0.1639
  -9.250  -0.3147   0.04732   0.04328  -0.1253  0.8608  0.0429  -3.7434   0.0000   0.0000   0.0000  -0.1723
  -9.000  -0.3142   0.04290   0.03863  -0.1273  0.8560  0.0425  -3.7831   0.0000   0.0000   0.0000  -0.1788
  -8.750  -0.3144   0.03781   0.03312  -0.1289  0.8516  0.0419  -3.8644   0.0000   0.0000   0.0000  -0.1834
  -8.500  -0.3100   0.03294   0.02765  -0.1297  0.8472  0.0416  -3.9388   0.0000   0.0000   0.0000  -0.1915
  -8.250  -0.2967   0.02958   0.02372  -0.1297  0.8440  0.0421  -3.9262   0.0000   0.0000   0.0000  -0.2109
  -8.000  -0.2796   0.02727   0.02074  -0.1295  0.8397  0.0432  -3.8777   0.0000   0.0000   0.0000  -0.2377
  -7.750  -0.2560   0.02583   0.01932  -0.1296  0.8369  0.0444  -3.7054   0.0000   0.0000   0.0000  -0.2818
  -7.500  -0.2320   0.02478   0.01815  -0.1295  0.8333  0.0455  -3.5541   0.0000   0.0000   0.0000  -0.3354
  -7.250  -0.2081   0.02348   0.01660  -0.1294  0.8299  0.0466  -3.4372   0.0000   0.0000   0.0000  -0.4009
  -7.000  -0.1831   0.02229   0.01504  -0.1291  0.8273  0.0480  -3.3228   0.0000   0.0000   0.0000  -0.4870
  -6.750  -0.1582   0.02132   0.01401  -0.1291  0.8236  0.0496  -3.1759   0.0000   0.0000   0.0000  -0.6012
  -6.500  -0.1321   0.02070   0.01334  -0.1290  0.8204  0.0517  -3.0175   0.0000   0.0000   0.0000  -0.7675
  -6.250  -0.1052   0.01999   0.01236  -0.1288  0.8180  0.0537  -2.8889   0.0000   0.0000   0.0000  -1.0230
  -6.000  -0.0798   0.01921   0.01164  -0.1288  0.8143  0.0556  -2.7545   0.0000   0.0000   0.0000  -1.4253
  -5.750  -0.0532   0.01867   0.01103  -0.1286  0.8110  0.0582  -2.6198   0.0000   0.0000   0.0000  -2.2583
  -5.500  -0.0262   0.01806   0.01037  -0.1286  0.8086  0.0613  -2.4830   0.0000   0.0000   0.0000  -4.8199
  -5.250   0.0000   0.01770   0.00998  -0.1285  0.8048  0.0649  -2.3523   0.0000   0.0000   0.0000  308971.6474
  -5.000   0.0263   0.01717   0.00948  -0.1284  0.8015  0.0684  -2.2318   0.0000   0.0000   0.0000   5.2774
  -4.750   0.0538   0.01671   0.00898  -0.1283  0.7991  0.0732  -2.1103   0.0000   0.0000   0.0000   2.7075
  -4.500   0.0800   0.01643   0.00870  -0.1282  0.7954  0.0790  -1.9901   0.0000   0.0000   0.0000   1.8980
  -4.250   0.1068   0.01606   0.00837  -0.1282  0.7920  0.0860  -1.8692   0.0000   0.0000   0.0000   1.4819
  -4.000   0.1345   0.01568   0.00802  -0.1282  0.7896  0.0955  -1.7456   0.0000   0.0000   0.0000   1.2272
  -3.750   0.1609   0.01541   0.00783  -0.1282  0.7860  0.1090  -1.6360   0.0000   0.0000   0.0000   1.0653
  -3.500   0.1878   0.01511   0.00761  -0.1282  0.7826  0.1292  -1.5277   0.0000   0.0000   0.0000   0.9473
  -3.250   0.2159   0.01477   0.00736  -0.1283  0.7801  0.1582  -1.4166   0.0000   0.0000   0.0000   0.8563
  -3.000   0.2426   0.01455   0.00728  -0.1284  0.7767  0.1919  -1.3075   0.0000   0.0000   0.0000   0.7891
  -2.750   0.2694   0.01432   0.00721  -0.1285  0.7730  0.2329  -1.1986   0.0000   0.0000   0.0000   0.7348
  -2.500   0.2975   0.01402   0.00708  -0.1287  0.7705  0.2871  -1.0897   0.0000   0.0000   0.0000   0.6889
  -2.250   0.3244   0.01383   0.00710  -0.1287  0.7672  0.3503  -0.9916   0.0000   0.0000   0.0000   0.6520
  -2.000   0.3508   0.01368   0.00715  -0.1287  0.7632  0.4131  -0.8960   0.0000   0.0000   0.0000   0.6210
  -1.750   0.3787   0.01344   0.00709  -0.1287  0.7606  0.4788  -0.7995   0.0000   0.0000   0.0000   0.5930
  -1.500   0.4051   0.01331   0.00716  -0.1284  0.7571  0.5446  -0.7669   0.0000   0.0000   0.0000   0.5695
  -1.250   0.4308   0.01321   0.00726  -0.1280  0.7530  0.6060  -0.7816   0.0000   0.0000   0.0000   0.5489
  -1.000   0.4582   0.01305   0.00724  -0.1276  0.7503  0.6659  -0.8000   0.0000   0.0000   0.0000   0.5297
  -0.750   0.4835   0.01304   0.00736  -0.1270  0.7466  0.7164  -0.8174   0.0000   0.0000   0.0000   0.5132
  -0.500   0.5086   0.01301   0.00743  -0.1262  0.7427  0.7608  -0.8351   0.0000   0.0000   0.0000   0.4982
  -0.250   0.5345   0.01286   0.00736  -0.1254  0.7400  0.8050  -0.8539   0.0000   0.0000   0.0000   0.4841
   0.000   0.5564   0.01285   0.00748  -0.1238  0.7359  0.8520  -0.8699   0.0000   0.0000   0.0000   0.4716
   0.250   0.5803   0.01274   0.00745  -0.1225  0.7319  0.9070  -0.8874   0.0000   0.0000   0.0000   0.4596
   0.500   0.6228   0.01252   0.00718  -0.1250  0.7292  0.9680  -0.9188   0.0000   0.0000   0.0000   0.4488
   0.750   0.6589   0.01260   0.00723  -0.1271  0.7239  1.0001  -0.9459   0.0000   0.0000   0.0000   0.4406
   1.000   0.6878   0.01260   0.00714  -0.1274  0.7205  1.0001  -0.9696   0.0000   0.0000   0.0000   0.4325
   1.250   0.7166   0.01265   0.00711  -0.1276  0.7172  1.0001  -0.9932   0.0000   0.0000   0.0000   0.4251
   1.500   0.7427   0.01277   0.00721  -0.1275  0.7121  1.0001  -1.0150   0.0000   0.0000   0.0000   0.4183
   1.750   0.7731   0.01270   0.00704  -0.1279  0.7089  1.0001  -1.0426   0.0000   0.0000   0.0000   0.4117
   2.000   0.7987   0.01281   0.00714  -0.1276  0.7031  1.0001  -1.0686   0.0000   0.0000   0.0000   0.4057
   2.250   0.8285   0.01274   0.00701  -0.1279  0.6992  1.0001  -1.0979   0.0000   0.0000   0.0000   0.4000
   2.500   0.8552   0.01284   0.00710  -0.1278  0.6942  1.0001  -1.1248   0.0000   0.0000   0.0000   0.3947
   2.750   0.8836   0.01286   0.00707  -0.1279  0.6898  1.0001  -1.1541   0.0000   0.0000   0.0000   0.3897
   3.000   0.9119   0.01287   0.00706  -0.1280  0.6852  1.0001  -1.1848   0.0000   0.0000   0.0000   0.3849
   3.250   0.9393   0.01289   0.00706  -0.1279  0.6796  1.0001  -1.2182   0.0000   0.0000   0.0000   0.3804
   3.500   0.9674   0.01289   0.00704  -0.1279  0.6745  1.0001  -1.2523   0.0000   0.0000   0.0000   0.3762
   3.750   0.9949   0.01289   0.00703  -0.1279  0.6686  1.0001  -1.2871   0.0000   0.0000   0.0000   0.3721
   4.000   1.0218   0.01292   0.00706  -0.1277  0.6625  1.0001  -1.3217   0.0000   0.0000   0.0000   0.3682
   4.250   1.0504   0.01288   0.00698  -0.1278  0.6569  1.0001  -1.3581   0.0000   0.0000   0.0000   0.3645
   4.500   1.0759   0.01296   0.00710  -0.1274  0.6500  1.0001  -1.3982   0.0000   0.0000   0.0000   0.3610
   4.750   1.1049   0.01293   0.00703  -0.1275  0.6443  1.0001  -1.4437   0.0000   0.0000   0.0000   0.3576
   5.000   1.1301   0.01299   0.00711  -0.1271  0.6366  1.0001  -1.4865   0.0000   0.0000   0.0000   0.3543
   5.250   1.1554   0.01306   0.00721  -0.1267  0.6288  1.0001  -1.5298   0.0000   0.0000   0.0000   0.3511
   5.500   1.1822   0.01309   0.00724  -0.1264  0.6216  1.0001  -1.5747   0.0000   0.0000   0.0000   0.3481
   5.750   1.2084   0.01312   0.00726  -0.1261  0.6134  1.0001  -1.6199   0.0000   0.0000   0.0000   0.3452
   6.000   1.2325   0.01319   0.00736  -0.1255  0.6035  1.0001  -1.6756   0.0000   0.0000   0.0000   0.3422
   6.250   1.2566   0.01327   0.00745  -0.1248  0.5929  1.0001  -1.7389   0.0000   0.0000   0.0000   0.3394
   6.500   1.2804   0.01339   0.00758  -0.1241  0.5822  1.0001  -1.8040   0.0000   0.0000   0.0000   0.3366
   6.750   1.3037   0.01355   0.00774  -0.1233  0.5711  1.0001  -1.8740   0.0000   0.0000   0.0000   0.3339
   7.000   1.3265   0.01374   0.00794  -0.1225  0.5596  1.0001  -1.9532   0.0000   0.0000   0.0000   0.3313
   7.250   1.3479   0.01398   0.00818  -0.1214  0.5468  1.0001  -2.0332   0.0000   0.0000   0.0000   0.3286
   7.500   1.3675   0.01424   0.00846  -0.1200  0.5320  1.0001  -2.1130   0.0000   0.0000   0.0000   0.3259
   7.750   1.3860   0.01455   0.00871  -0.1184  0.5156  1.0001  -2.1922   0.0000   0.0000   0.0000   0.3232
   8.000   1.4013   0.01494   0.00908  -0.1163  0.4968  1.0001  -2.2874   0.0000   0.0000   0.0000   0.3204
   8.250   1.4155   0.01540   0.00949  -0.1141  0.4786  1.0001  -2.3897   0.0000   0.0000   0.0000   0.3176
   8.500   1.4265   0.01593   0.00995  -0.1114  0.4611  1.0001  -2.4857   0.0000   0.0000   0.0000   0.3147
   8.750   1.4364   0.01655   0.01055  -0.1086  0.4432  1.0001  -2.5799   0.0000   0.0000   0.0000   0.3118
   9.000   1.4454   0.01728   0.01123  -0.1058  0.4255  1.0001  -2.6728   0.0000   0.0000   0.0000   0.3090
   9.250   1.4532   0.01815   0.01203  -0.1031  0.4074  1.0001  -2.7633   0.0000   0.0000   0.0000   0.3063
   9.500   1.4604   0.01911   0.01294  -0.1005  0.3888  1.0001  -2.8529   0.0000   0.0000   0.0000   0.3037
   9.750   1.4669   0.02019   0.01397  -0.0979  0.3712  1.0001  -2.9431   0.0000   0.0000   0.0000   0.3012
  10.000   1.4728   0.02138   0.01510  -0.0955  0.3540  1.0001  -3.0360   0.0000   0.0000   0.0000   0.2988
  10.250   1.4794   0.02260   0.01630  -0.0932  0.3367  1.0001  -3.1314   0.0000   0.0000   0.0000   0.2965
  10.500   1.4850   0.02394   0.01760  -0.0910  0.3202  1.0001  -3.2243   0.0000   0.0000   0.0000   0.2943
  10.750   1.4900   0.02537   0.01898  -0.0889  0.3041  1.0001  -3.3164   0.0000   0.0000   0.0000   0.2922
  11.000   1.4950   0.02686   0.02044  -0.0868  0.2887  1.0001  -3.4088   0.0000   0.0000   0.0000   0.2902
  11.250   1.4992   0.02843   0.02198  -0.0848  0.2730  1.0001  -3.4996   0.0000   0.0000   0.0000   0.2882
  11.500   1.5034   0.03006   0.02358  -0.0829  0.2569  1.0001  -3.5907   0.0000   0.0000   0.0000   0.2862
  11.750   1.5056   0.03187   0.02534  -0.0809  0.2419  1.0001  -3.6759   0.0000   0.0000   0.0000   0.2843
  12.000   1.5077   0.03372   0.02716  -0.0790  0.2269  1.0001  -3.7613   0.0000   0.0000   0.0000   0.2825
  12.250   1.5103   0.03560   0.02902  -0.0773  0.2116  1.0001  -3.8483   0.0000   0.0000   0.0000   0.2807
  12.500   1.5117   0.03764   0.03102  -0.0755  0.1969  1.0001  -3.9319   0.0000   0.0000   0.0000   0.2790
  12.750   1.5129   0.03976   0.03310  -0.0739  0.1831  1.0001  -4.0146   0.0000   0.0000   0.0000   0.2774
  13.000   1.5137   0.04197   0.03528  -0.0724  0.1706  1.0001  -4.0962   0.0000   0.0000   0.0000   0.2758
  13.250   1.5158   0.04415   0.03746  -0.0710  0.1575  1.0001  -4.1814   0.0000   0.0000   0.0000   0.2744
  13.500   1.5168   0.04649   0.03978  -0.0697  0.1452  1.0001  -4.2631   0.0000   0.0000   0.0000   0.2729
  13.750   1.5163   0.04902   0.04229  -0.0684  0.1342  1.0001  -4.3391   0.0000   0.0000   0.0000   0.2716
  14.000   1.5153   0.05166   0.04491  -0.0672  0.1242  1.0001  -4.4167   0.0000   0.0000   0.0000   0.2703
  14.250   1.5154   0.05426   0.04752  -0.0662  0.1146  1.0001  -4.4998   0.0000   0.0000   0.0000   0.2690
  14.500   1.5148   0.05699   0.05025  -0.0652  0.1060  1.0001  -4.5803   0.0000   0.0000   0.0000   0.2679
  14.750   1.5138   0.05982   0.05309  -0.0644  0.0986  1.0001  -4.6585   0.0000   0.0000   0.0000   0.2668
  15.000   1.5122   0.06275   0.05603  -0.0636  0.0920  1.0001  -4.7340   0.0000   0.0000   0.0000   0.2657
  15.250   1.5104   0.06577   0.05908  -0.0629  0.0861  1.0001  -4.8076   0.0000   0.0000   0.0000   0.2647
  15.500   1.5084   0.06887   0.06222  -0.0623  0.0809  1.0001  -4.8794   0.0000   0.0000   0.0000   0.2638
  15.750   1.5060   0.07209   0.06547  -0.0618  0.0761  1.0001  -4.9484   0.0000   0.0000   0.0000   0.2630
  16.000   1.5024   0.07548   0.06889  -0.0614  0.0720  1.0001  -5.0123   0.0000   0.0000   0.0000   0.2623
  16.250   1.4990   0.07887   0.07232  -0.0611  0.0681  1.0001  -5.0786   0.0000   0.0000   0.0000   0.2616
  16.500   1.4971   0.08217   0.07569  -0.0609  0.0642  1.0001  -5.1528   0.0000   0.0000   0.0000   0.2609
  16.750   1.4931   0.08575   0.07932  -0.0608  0.0610  1.0001  -5.2180   0.0000   0.0000   0.0000   0.2604
  17.000   1.4900   0.08928   0.08289  -0.0609  0.0578  1.0001  -5.2910   0.0000   0.0000   0.0000   0.2599
  17.250   1.4870   0.09283   0.08652  -0.0610  0.0548  1.0001  -5.3634   0.0000   0.0000   0.0000   0.2595
  17.500   1.4832   0.09649   0.09020  -0.0612  0.0524  1.0001  -5.4339   0.0000   0.0000   0.0000   0.2591
  17.750   1.4808   0.09999   0.09380  -0.0614  0.0498  1.0001  -5.5054   0.0000   0.0000   0.0000   0.2588
  18.000   1.4780   0.10354   0.09738  -0.0618  0.0478  1.0001  -5.5784   0.0000   0.0000   0.0000   0.2585
  18.250   1.4761   0.10698   0.10089  -0.0622  0.0458  1.0001  -5.6505   0.0000   0.0000   0.0000   0.2582
  18.500   1.4748   0.11040   0.10438  -0.0627  0.0440  1.0001  -5.7274   0.0000   0.0000   0.0000   0.2579
  18.750   1.4749   0.11339   0.10733  -0.0630  0.0425  1.0001  -5.8169   0.0000   0.0000   0.0000   0.2575
  19.000   1.4740   0.11688   0.11098  -0.0637  0.0409  1.0001  -5.8964   0.0000   0.0000   0.0000   0.2574
  19.250   1.4744   0.12006   0.11422  -0.0644  0.0395  1.0001  -5.9890   0.0000   0.0000   0.0000   0.2572
  19.500   1.4781   0.12235   0.11644  -0.0645  0.0383  1.0001  -6.1071   0.0000   0.0000   0.0000   0.2565
  19.750   1.4767   0.12598   0.12024  -0.0656  0.0372  1.0001  -6.1805   0.0000   0.0000   0.0000   0.2566
  20.000   1.4773   0.12918   0.12355  -0.0665  0.0361  1.0001  -6.2695   0.0000   0.0000   0.0000   0.2566


