xflr5 v6.61

 Calculated polar for: QX0026

 1 1 Reynolds number fixed          Mach number fixed         

 xtrf =   1.000 (top)        1.000 (bottom)
 Mach =   0.000     Re =     0.680 e 6     Ncrit =   9.000

  alpha     CL        CD       CDp       Cm    Top Xtr Bot Xtr   Cpmin    Chinge    XCp    
 ------- -------- --------- --------- -------- ------- ------- -------- --------- ---------
 -10.000  -0.5174   0.02018   0.01475  -0.1219  0.8010  0.0230  -6.1651   0.0000   0.0000   0.0000  -0.0043
  -9.750  -0.4927   0.01954   0.01398  -0.1219  0.7984  0.0236  -5.9398   0.0000   0.0000   0.0000  -0.0163
  -9.500  -0.4677   0.01885   0.01318  -0.1220  0.7951  0.0242  -5.7207   0.0000   0.0000   0.0000  -0.0298
  -9.250  -0.4421   0.01824   0.01245  -0.1220  0.7921  0.0248  -5.5018   0.0000   0.0000   0.0000  -0.0453
  -9.000  -0.4161   0.01772   0.01176  -0.1221  0.7896  0.0253  -5.2828   0.0000   0.0000   0.0000  -0.0630
  -8.750  -0.3919   0.01674   0.01076  -0.1221  0.7868  0.0262  -5.0778   0.0000   0.0000   0.0000  -0.0815
  -8.500  -0.3654   0.01627   0.01026  -0.1222  0.7838  0.0268  -4.8524   0.0000   0.0000   0.0000  -0.1049
  -8.250  -0.3387   0.01580   0.00972  -0.1222  0.7811  0.0276  -4.6343   0.0000   0.0000   0.0000  -0.1321
  -8.000  -0.3118   0.01536   0.00917  -0.1223  0.7788  0.0284  -4.4222   0.0000   0.0000   0.0000  -0.1642
  -7.750  -0.2845   0.01496   0.00870  -0.1224  0.7760  0.0291  -4.2241   0.0000   0.0000   0.0000  -0.2033
  -7.500  -0.2585   0.01426   0.00796  -0.1224  0.7732  0.0301  -4.0414   0.0000   0.0000   0.0000  -0.2478
  -7.250  -0.2312   0.01390   0.00757  -0.1225  0.7707  0.0312  -3.8429   0.0000   0.0000   0.0000  -0.3060
  -7.000  -0.2035   0.01357   0.00718  -0.1226  0.7684  0.0323  -3.6522   0.0000   0.0000   0.0000  -0.3807
  -6.750  -0.1757   0.01325   0.00680  -0.1228  0.7655  0.0334  -3.4663   0.0000   0.0000   0.0000  -0.4799
  -6.500  -0.1488   0.01271   0.00624  -0.1228  0.7628  0.0347  -3.3024   0.0000   0.0000   0.0000  -0.6108
  -6.250  -0.1209   0.01240   0.00591  -0.1230  0.7605  0.0361  -3.1314   0.0000   0.0000   0.0000  -0.8087
  -6.000  -0.0926   0.01217   0.00562  -0.1231  0.7580  0.0377  -2.9642   0.0000   0.0000   0.0000  -1.1308
  -5.750  -0.0650   0.01178   0.00523  -0.1233  0.7551  0.0397  -2.8035   0.0000   0.0000   0.0000  -1.7168
  -5.500  -0.0367   0.01154   0.00496  -0.1235  0.7523  0.0418  -2.6427   0.0000   0.0000   0.0000  -3.2345
  -5.250  -0.0084   0.01126   0.00463  -0.1236  0.7500  0.0440  -2.4997   0.0000   0.0000   0.0000  -14.9851
  -5.000   0.0199   0.01101   0.00439  -0.1238  0.7473  0.0467  -2.3543   0.0000   0.0000   0.0000   6.6508
  -4.750   0.0483   0.01076   0.00413  -0.1240  0.7445  0.0498  -2.2131   0.0000   0.0000   0.0000   2.8907
  -4.500   0.0770   0.01058   0.00393  -0.1242  0.7418  0.0536  -2.0707   0.0000   0.0000   0.0000   1.9064
  -4.250   0.1056   0.01035   0.00370  -0.1244  0.7396  0.0584  -1.9320   0.0000   0.0000   0.0000   1.4576
  -4.000   0.1342   0.01015   0.00351  -0.1247  0.7369  0.0647  -1.7964   0.0000   0.0000   0.0000   1.2006
  -3.750   0.1628   0.00992   0.00334  -0.1249  0.7340  0.0739  -1.6707   0.0000   0.0000   0.0000   1.0339
  -3.500   0.1914   0.00971   0.00317  -0.1251  0.7315  0.0884  -1.5492   0.0000   0.0000   0.0000   0.9166
  -3.250   0.2203   0.00953   0.00303  -0.1254  0.7292  0.1084  -1.4287   0.0000   0.0000   0.0000   0.8296
  -3.000   0.2488   0.00935   0.00294  -0.1257  0.7263  0.1311  -1.3105   0.0000   0.0000   0.0000   0.7632
  -2.750   0.2775   0.00917   0.00285  -0.1259  0.7233  0.1547  -1.1942   0.0000   0.0000   0.0000   0.7104
  -2.500   0.3063   0.00901   0.00276  -0.1262  0.7205  0.1820  -1.0801   0.0000   0.0000   0.0000   0.6673
  -2.250   0.3351   0.00885   0.00268  -0.1265  0.7178  0.2140  -0.9764   0.0000   0.0000   0.0000   0.6316
  -2.000   0.3635   0.00865   0.00263  -0.1267  0.7143  0.2539  -0.8764   0.0000   0.0000   0.0000   0.6019
  -1.750   0.3921   0.00845   0.00257  -0.1270  0.7112  0.3038  -0.7789   0.0000   0.0000   0.0000   0.5763
  -1.500   0.4209   0.00830   0.00253  -0.1273  0.7086  0.3531  -0.7911   0.0000   0.0000   0.0000   0.5541
  -1.250   0.4494   0.00815   0.00253  -0.1276  0.7054  0.4014  -0.8074   0.0000   0.0000   0.0000   0.5349
  -1.000   0.4778   0.00798   0.00252  -0.1278  0.7020  0.4550  -0.8239   0.0000   0.0000   0.0000   0.5179
  -0.750   0.5063   0.00782   0.00250  -0.1280  0.6988  0.5126  -0.8418   0.0000   0.0000   0.0000   0.5027
  -0.500   0.5345   0.00769   0.00251  -0.1281  0.6949  0.5654  -0.8616   0.0000   0.0000   0.0000   0.4891
  -0.250   0.5627   0.00756   0.00253  -0.1282  0.6909  0.6177  -0.8813   0.0000   0.0000   0.0000   0.4768
   0.000   0.5910   0.00749   0.00254  -0.1283  0.6877  0.6656  -0.9014   0.0000   0.0000   0.0000   0.4655
   0.250   0.6190   0.00743   0.00259  -0.1283  0.6837  0.7042  -0.9211   0.0000   0.0000   0.0000   0.4553
   0.500   0.6471   0.00737   0.00260  -0.1283  0.6797  0.7383  -0.9431   0.0000   0.0000   0.0000   0.4460
   0.750   0.6749   0.00733   0.00262  -0.1282  0.6762  0.7715  -0.9664   0.0000   0.0000   0.0000   0.4373
   1.000   0.7018   0.00725   0.00267  -0.1280  0.6716  0.8066  -0.9892   0.0000   0.0000   0.0000   0.4293
   1.250   0.7279   0.00717   0.00269  -0.1274  0.6676  0.8497  -1.0117   0.0000   0.0000   0.0000   0.4217
   1.500   0.7515   0.00707   0.00274  -0.1263  0.6631  0.9072  -1.0328   0.0000   0.0000   0.0000   0.4143
   1.750   0.7863   0.00699   0.00271  -0.1275  0.6583  0.9788  -1.0622   0.0000   0.0000   0.0000   0.4082
   2.000   0.8195   0.00703   0.00271  -0.1288  0.6540  1.0001  -1.0934   0.0000   0.0000   0.0000   0.4028
   2.250   0.8476   0.00708   0.00275  -0.1289  0.6489  1.0001  -1.1214   0.0000   0.0000   0.0000   0.3974
   2.500   0.8757   0.00715   0.00277  -0.1290  0.6439  1.0001  -1.1502   0.0000   0.0000   0.0000   0.3923
   2.750   0.9035   0.00720   0.00281  -0.1291  0.6376  1.0001  -1.1792   0.0000   0.0000   0.0000   0.3875
   3.000   0.9313   0.00727   0.00286  -0.1292  0.6321  1.0001  -1.2095   0.0000   0.0000   0.0000   0.3830
   3.250   0.9592   0.00734   0.00292  -0.1293  0.6263  1.0001  -1.2433   0.0000   0.0000   0.0000   0.3788
   3.500   0.9869   0.00742   0.00299  -0.1294  0.6206  1.0001  -1.2777   0.0000   0.0000   0.0000   0.3747
   3.750   1.0144   0.00751   0.00305  -0.1294  0.6142  1.0001  -1.3127   0.0000   0.0000   0.0000   0.3709
   4.000   1.0418   0.00759   0.00314  -0.1294  0.6069  1.0001  -1.3479   0.0000   0.0000   0.0000   0.3672
   4.250   1.0689   0.00770   0.00322  -0.1293  0.5996  1.0001  -1.3830   0.0000   0.0000   0.0000   0.3637
   4.750   1.1221   0.00795   0.00343  -0.1291  0.5824  1.0001  -1.4695   0.0000   0.0000   0.0000   0.3570
   5.000   1.1484   0.00809   0.00355  -0.1289  0.5729  1.0001  -1.5135   0.0000   0.0000   0.0000   0.3539
   5.250   1.1744   0.00824   0.00369  -0.1286  0.5628  1.0001  -1.5575   0.0000   0.0000   0.0000   0.3509
   5.500   1.2000   0.00841   0.00384  -0.1283  0.5521  1.0001  -1.6015   0.0000   0.0000   0.0000   0.3480
   5.750   1.2252   0.00860   0.00400  -0.1280  0.5409  1.0001  -1.6456   0.0000   0.0000   0.0000   0.3451
   6.000   1.2498   0.00881   0.00419  -0.1275  0.5287  1.0001  -1.7069   0.0000   0.0000   0.0000   0.3424
   6.500   1.2967   0.00933   0.00462  -0.1262  0.5002  1.0001  -1.8351   0.0000   0.0000   0.0000   0.3369
   6.750   1.3174   0.00969   0.00491  -0.1251  0.4801  1.0001  -1.9066   0.0000   0.0000   0.0000   0.3342
   7.000   1.3367   0.01011   0.00524  -0.1238  0.4576  1.0001  -1.9824   0.0000   0.0000   0.0000   0.3315
   7.250   1.3553   0.01056   0.00560  -0.1224  0.4378  1.0001  -2.0600   0.0000   0.0000   0.0000   0.3287
   7.500   1.3736   0.01100   0.00597  -0.1209  0.4194  1.0001  -2.1379   0.0000   0.0000   0.0000   0.3261
   7.750   1.3903   0.01148   0.00639  -0.1191  0.4008  1.0001  -2.2161   0.0000   0.0000   0.0000   0.3234
   8.000   1.4029   0.01203   0.00686  -0.1167  0.3814  1.0001  -2.3134   0.0000   0.0000   0.0000   0.3205
   8.250   1.4150   0.01268   0.00742  -0.1143  0.3626  1.0001  -2.4111   0.0000   0.0000   0.0000   0.3177
   8.500   1.4278   0.01335   0.00802  -0.1121  0.3444  1.0001  -2.5117   0.0000   0.0000   0.0000   0.3150
   8.750   1.4409   0.01405   0.00867  -0.1101  0.3267  1.0001  -2.6142   0.0000   0.0000   0.0000   0.3125
   9.000   1.4524   0.01488   0.00942  -0.1081  0.3090  1.0001  -2.7136   0.0000   0.0000   0.0000   0.3101
   9.250   1.4628   0.01582   0.01029  -0.1060  0.2921  1.0001  -2.8127   0.0000   0.0000   0.0000   0.3077
   9.500   1.4745   0.01674   0.01115  -0.1042  0.2749  1.0001  -2.9213   0.0000   0.0000   0.0000   0.3055
   9.750   1.4849   0.01778   0.01212  -0.1023  0.2567  1.0001  -3.0272   0.0000   0.0000   0.0000   0.3033
  10.000   1.4938   0.01895   0.01321  -0.1003  0.2397  1.0001  -3.1302   0.0000   0.0000   0.0000   0.3011
  10.500   1.5125   0.02133   0.01547  -0.0968  0.2087  1.0001  -3.3415   0.0000   0.0000   0.0000   0.2970
  10.750   1.5209   0.02262   0.01671  -0.0950  0.1928  1.0001  -3.4457   0.0000   0.0000   0.0000   0.2950
  11.000   1.5279   0.02402   0.01804  -0.0931  0.1799  1.0001  -3.5469   0.0000   0.0000   0.0000   0.2930
  11.250   1.5370   0.02530   0.01930  -0.0915  0.1681  1.0001  -3.6550   0.0000   0.0000   0.0000   0.2911
  11.500   1.5448   0.02669   0.02064  -0.0899  0.1555  1.0001  -3.7602   0.0000   0.0000   0.0000   0.2893
  11.750   1.5519   0.02814   0.02204  -0.0882  0.1427  1.0001  -3.8639   0.0000   0.0000   0.0000   0.2874
  12.000   1.5576   0.02971   0.02358  -0.0864  0.1319  1.0001  -3.9639   0.0000   0.0000   0.0000   0.2856
  12.250   1.5640   0.03126   0.02510  -0.0848  0.1220  1.0001  -4.0668   0.0000   0.0000   0.0000   0.2839
  12.500   1.5695   0.03290   0.02671  -0.0832  0.1121  1.0001  -4.1674   0.0000   0.0000   0.0000   0.2821
  12.750   1.5751   0.03457   0.02836  -0.0817  0.1020  1.0001  -4.2689   0.0000   0.0000   0.0000   0.2804
  13.000   1.5797   0.03638   0.03014  -0.0801  0.0924  1.0001  -4.3674   0.0000   0.0000   0.0000   0.2788
  13.250   1.5839   0.03827   0.03200  -0.0787  0.0845  1.0001  -4.4651   0.0000   0.0000   0.0000   0.2772
  13.500   1.5885   0.04015   0.03388  -0.0773  0.0778  1.0001  -4.5660   0.0000   0.0000   0.0000   0.2757
  13.750   1.5931   0.04208   0.03581  -0.0760  0.0720  1.0001  -4.6724   0.0000   0.0000   0.0000   0.2742
  14.000   1.5976   0.04406   0.03781  -0.0748  0.0669  1.0001  -4.7791   0.0000   0.0000   0.0000   0.2728
  14.500   1.6066   0.04814   0.04193  -0.0727  0.0580  1.0001  -4.9942   0.0000   0.0000   0.0000   0.2701
  14.750   1.6108   0.05024   0.04407  -0.0717  0.0542  1.0001  -5.1010   0.0000   0.0000   0.0000   0.2688
  15.000   1.6140   0.05250   0.04635  -0.0707  0.0507  1.0001  -5.2041   0.0000   0.0000   0.0000   0.2676
  15.250   1.6162   0.05490   0.04877  -0.0698  0.0474  1.0001  -5.3033   0.0000   0.0000   0.0000   0.2664
  15.500   1.6199   0.05719   0.05112  -0.0690  0.0442  1.0001  -5.4085   0.0000   0.0000   0.0000   0.2652
  15.750   1.6218   0.05973   0.05369  -0.0683  0.0413  1.0001  -5.5078   0.0000   0.0000   0.0000   0.2641
  16.000   1.6220   0.06245   0.05645  -0.0675  0.0386  1.0001  -5.6085   0.0000   0.0000   0.0000   0.2631
  16.250   1.6234   0.06509   0.05915  -0.0669  0.0361  1.0001  -5.7180   0.0000   0.0000   0.0000   0.2621
  16.500   1.6209   0.06823   0.06232  -0.0663  0.0340  1.0001  -5.8099   0.0000   0.0000   0.0000   0.2612
  16.750   1.6217   0.07104   0.06520  -0.0659  0.0319  1.0001  -5.9168   0.0000   0.0000   0.0000   0.2603
  17.250   1.6176   0.07749   0.07179  -0.0653  0.0287  1.0001  -6.1019   0.0000   0.0000   0.0000   0.2588
  17.500   1.6141   0.08093   0.07528  -0.0651  0.0275  1.0001  -6.1877   0.0000   0.0000   0.0000   0.2582
  17.750   1.6072   0.08488   0.07929  -0.0650  0.0265  1.0001  -6.2570   0.0000   0.0000   0.0000   0.2577
  18.000   1.6058   0.08818   0.08269  -0.0651  0.0255  1.0001  -6.3581   0.0000   0.0000   0.0000   0.2571
  18.250   1.6024   0.09179   0.08639  -0.0652  0.0247  1.0001  -6.4484   0.0000   0.0000   0.0000   0.2567
  18.500   1.5967   0.09575   0.09043  -0.0656  0.0240  1.0001  -6.5257   0.0000   0.0000   0.0000   0.2564
  18.750   1.5880   0.10019   0.09494  -0.0661  0.0234  1.0001  -6.5838   0.0000   0.0000   0.0000   0.2563
  19.000   1.5805   0.10448   0.09932  -0.0667  0.0229  1.0001  -6.6464   0.0000   0.0000   0.0000   0.2562
  19.250   1.5768   0.10829   0.10323  -0.0673  0.0224  1.0001  -6.7304   0.0000   0.0000   0.0000   0.2561
  19.500   1.5719   0.11230   0.10734  -0.0681  0.0219  1.0001  -6.8070   0.0000   0.0000   0.0000   0.2561
  19.750   1.5665   0.11644   0.11157  -0.0691  0.0214  1.0001  -6.8790   0.0000   0.0000   0.0000   0.2562
  20.000   1.5600   0.12079   0.11600  -0.0702  0.0210  1.0001  -6.9433   0.0000   0.0000   0.0000   0.2564


