xflr5 v6.61

 Calculated polar for: QX0126

 1 1 Reynolds number fixed          Mach number fixed         

 xtrf =   1.000 (top)        1.000 (bottom)
 Mach =   0.000     Re =     0.500 e 6     Ncrit =   9.000

  alpha     CL        CD       CDp       Cm    Top Xtr Bot Xtr   Cpmin    Chinge    XCp    
 ------- -------- --------- --------- -------- ------- ------- -------- --------- ---------
 -10.000  -0.6805   0.02453   0.01921  -0.0852  0.8880  0.0274  -5.9298   0.0000   0.0000   0.0000   0.1115
  -9.750  -0.6614   0.02270   0.01725  -0.0849  0.8837  0.0282  -5.7644   0.0000   0.0000   0.0000   0.1085
  -9.500  -0.6378   0.02194   0.01644  -0.0847  0.8797  0.0288  -5.5525   0.0000   0.0000   0.0000   0.1042
  -9.250  -0.6137   0.02120   0.01561  -0.0845  0.8755  0.0295  -5.3463   0.0000   0.0000   0.0000   0.0994
  -9.000  -0.5895   0.02047   0.01475  -0.0842  0.8721  0.0302  -5.1470   0.0000   0.0000   0.0000   0.0943
  -8.750  -0.5642   0.01977   0.01394  -0.0841  0.8680  0.0311  -4.9460   0.0000   0.0000   0.0000   0.0881
  -8.500  -0.5389   0.01917   0.01318  -0.0839  0.8647  0.0319  -4.7485   0.0000   0.0000   0.0000   0.0816
  -8.250  -0.5128   0.01861   0.01249  -0.0837  0.8608  0.0325  -4.5505   0.0000   0.0000   0.0000   0.0739
  -8.000  -0.4895   0.01723   0.01104  -0.0835  0.8570  0.0336  -4.3899   0.0000   0.0000   0.0000   0.0667
  -7.750  -0.4637   0.01666   0.01043  -0.0833  0.8535  0.0346  -4.2004   0.0000   0.0000   0.0000   0.0576
  -7.500  -0.4370   0.01620   0.00992  -0.0832  0.8494  0.0358  -4.0099   0.0000   0.0000   0.0000   0.0467
  -7.250  -0.4105   0.01575   0.00937  -0.0830  0.8461  0.0370  -3.8269   0.0000   0.0000   0.0000   0.0348
  -7.000  -0.3833   0.01532   0.00886  -0.0830  0.8421  0.0381  -3.6461   0.0000   0.0000   0.0000   0.0203
  -6.750  -0.3578   0.01449   0.00798  -0.0827  0.8384  0.0396  -3.4941   0.0000   0.0000   0.0000   0.0054
  -6.500  -0.3310   0.01403   0.00751  -0.0826  0.8347  0.0413  -3.3255   0.0000   0.0000   0.0000  -0.0133
  -6.250  -0.3035   0.01368   0.00712  -0.0826  0.8307  0.0434  -3.1572   0.0000   0.0000   0.0000  -0.0362
  -6.000  -0.2763   0.01331   0.00666  -0.0824  0.8277  0.0455  -3.0078   0.0000   0.0000   0.0000  -0.0629
  -5.750  -0.2491   0.01282   0.00620  -0.0824  0.8234  0.0484  -2.8582   0.0000   0.0000   0.0000  -0.0962
  -5.500  -0.2213   0.01256   0.00588  -0.0823  0.8199  0.0515  -2.7072   0.0000   0.0000   0.0000  -0.1384
  -5.250  -0.1939   0.01213   0.00545  -0.0823  0.8158  0.0551  -2.5641   0.0000   0.0000   0.0000  -0.1919
  -5.000  -0.1658   0.01189   0.00518  -0.0823  0.8118  0.0590  -2.4245   0.0000   0.0000   0.0000  -0.2653
  -4.750  -0.1381   0.01156   0.00485  -0.0823  0.8081  0.0638  -2.2891   0.0000   0.0000   0.0000  -0.3670
  -4.500  -0.1099   0.01131   0.00458  -0.0823  0.8039  0.0690  -2.1536   0.0000   0.0000   0.0000  -0.5241
  -4.250  -0.0818   0.01107   0.00433  -0.0822  0.8006  0.0758  -2.0195   0.0000   0.0000   0.0000  -0.7868
  -4.000  -0.0534   0.01083   0.00413  -0.0823  0.7958  0.0845  -1.8871   0.0000   0.0000   0.0000  -1.3353
  -3.750  -0.0253   0.01057   0.00389  -0.0823  0.7922  0.0957  -1.7659   0.0000   0.0000   0.0000  -3.0929
  -3.500   0.0030   0.01033   0.00371  -0.0824  0.7876  0.1096  -1.6453   0.0000   0.0000   0.0000  28.2722
  -3.250   0.0313   0.01012   0.00354  -0.0824  0.7835  0.1262  -1.5260   0.0000   0.0000   0.0000   2.9394
  -3.000   0.0597   0.00990   0.00339  -0.0825  0.7786  0.1435  -1.4091   0.0000   0.0000   0.0000   1.6597
  -2.750   0.0881   0.00969   0.00322  -0.0826  0.7744  0.1652  -1.2942   0.0000   0.0000   0.0000   1.2044
  -2.500   0.1165   0.00948   0.00311  -0.0827  0.7692  0.1928  -1.1816   0.0000   0.0000   0.0000   0.9709
  -2.250   0.1449   0.00927   0.00298  -0.0827  0.7651  0.2228  -1.0737   0.0000   0.0000   0.0000   0.8288
  -2.000   0.1733   0.00906   0.00289  -0.0829  0.7598  0.2573  -0.9732   0.0000   0.0000   0.0000   0.7336
  -1.750   0.2017   0.00884   0.00278  -0.0829  0.7553  0.2971  -0.8749   0.0000   0.0000   0.0000   0.6651
  -1.500   0.2298   0.00859   0.00270  -0.0830  0.7493  0.3500  -0.7792   0.0000   0.0000   0.0000   0.6138
  -1.250   0.2578   0.00830   0.00263  -0.0831  0.7439  0.4176  -0.7020   0.0000   0.0000   0.0000   0.5739
  -1.000   0.2852   0.00796   0.00257  -0.0831  0.7385  0.5098  -0.6400   0.0000   0.0000   0.0000   0.5420
  -0.750   0.3126   0.00768   0.00257  -0.0829  0.7323  0.5935  -0.6597   0.0000   0.0000   0.0000   0.5153
  -0.500   0.3397   0.00747   0.00257  -0.0826  0.7265  0.6669  -0.6801   0.0000   0.0000   0.0000   0.4926
  -0.250   0.3669   0.00733   0.00257  -0.0822  0.7205  0.7240  -0.7020   0.0000   0.0000   0.0000   0.4731
   0.000   0.3942   0.00723   0.00258  -0.0818  0.7136  0.7670  -0.7271   0.0000   0.0000   0.0000   0.4562
   0.250   0.4211   0.00715   0.00258  -0.0814  0.7065  0.8038  -0.7523   0.0000   0.0000   0.0000   0.4413
   0.500   0.4475   0.00708   0.00258  -0.0807  0.6990  0.8380  -0.7781   0.0000   0.0000   0.0000   0.4281
   0.750   0.4729   0.00702   0.00258  -0.0798  0.6910  0.8738  -0.8035   0.0000   0.0000   0.0000   0.4162
   1.000   0.4976   0.00697   0.00257  -0.0787  0.6824  0.9085  -0.8286   0.0000   0.0000   0.0000   0.4052
   1.250   0.5243   0.00695   0.00255  -0.0780  0.6734  0.9430  -0.8565   0.0000   0.0000   0.0000   0.3956
   1.500   0.5601   0.00695   0.00253  -0.0794  0.6646  0.9729  -0.8903   0.0000   0.0000   0.0000   0.3883
   1.750   0.6012   0.00697   0.00251  -0.0822  0.6552  0.9952  -0.9323   0.0000   0.0000   0.0000   0.3829
   2.000   0.6322   0.00703   0.00252  -0.0829  0.6449  1.0000  -0.9701   0.0000   0.0000   0.0000   0.3771
   2.250   0.6592   0.00711   0.00254  -0.0827  0.6339  1.0000  -1.0056   0.0000   0.0000   0.0000   0.3712
   2.500   0.6863   0.00721   0.00257  -0.0826  0.6223  1.0000  -1.0425   0.0000   0.0000   0.0000   0.3657
   2.750   0.7134   0.00731   0.00261  -0.0824  0.6094  1.0000  -1.0802   0.0000   0.0000   0.0000   0.3606
   3.000   0.7406   0.00743   0.00267  -0.0823  0.5960  1.0000  -1.1190   0.0000   0.0000   0.0000   0.3559
   3.250   0.7677   0.00757   0.00274  -0.0822  0.5835  1.0000  -1.1596   0.0000   0.0000   0.0000   0.3516
   3.500   0.7949   0.00771   0.00284  -0.0820  0.5701  1.0000  -1.2055   0.0000   0.0000   0.0000   0.3475
   3.750   0.8218   0.00788   0.00294  -0.0819  0.5566  1.0000  -1.2515   0.0000   0.0000   0.0000   0.3436
   4.000   0.8488   0.00805   0.00305  -0.0817  0.5424  1.0000  -1.2979   0.0000   0.0000   0.0000   0.3400
   4.250   0.8754   0.00825   0.00319  -0.0815  0.5280  1.0000  -1.3484   0.0000   0.0000   0.0000   0.3366
   4.500   0.9017   0.00846   0.00333  -0.0813  0.5122  1.0000  -1.4014   0.0000   0.0000   0.0000   0.3333
   4.750   0.9280   0.00868   0.00349  -0.0811  0.4954  1.0000  -1.4573   0.0000   0.0000   0.0000   0.3302
   5.000   0.9541   0.00891   0.00367  -0.0808  0.4792  1.0000  -1.5192   0.0000   0.0000   0.0000   0.3273
   5.250   0.9799   0.00917   0.00386  -0.0805  0.4630  1.0000  -1.5828   0.0000   0.0000   0.0000   0.3245
   5.500   1.0054   0.00944   0.00406  -0.0802  0.4457  1.0000  -1.6500   0.0000   0.0000   0.0000   0.3218
   5.750   1.0306   0.00974   0.00429  -0.0799  0.4279  1.0000  -1.7175   0.0000   0.0000   0.0000   0.3192
   6.000   1.0555   0.01004   0.00453  -0.0795  0.4100  1.0000  -1.7871   0.0000   0.0000   0.0000   0.3167
   6.250   1.0800   0.01038   0.00479  -0.0790  0.3913  1.0000  -1.8648   0.0000   0.0000   0.0000   0.3143
   6.500   1.1041   0.01073   0.00507  -0.0785  0.3723  1.0000  -1.9608   0.0000   0.0000   0.0000   0.3119
   6.750   1.1280   0.01110   0.00537  -0.0780  0.3535  1.0000  -2.0626   0.0000   0.0000   0.0000   0.3096
   7.000   1.1513   0.01150   0.00569  -0.0775  0.3350  1.0000  -2.1650   0.0000   0.0000   0.0000   0.3074
   7.250   1.1740   0.01193   0.00604  -0.0768  0.3155  1.0000  -2.2676   0.0000   0.0000   0.0000   0.3052
   7.500   1.1963   0.01238   0.00641  -0.0761  0.2964  1.0000  -2.3708   0.0000   0.0000   0.0000   0.3030
   7.750   1.2181   0.01284   0.00679  -0.0753  0.2785  1.0000  -2.4924   0.0000   0.0000   0.0000   0.3009
   8.000   1.2394   0.01333   0.00721  -0.0745  0.2615  1.0000  -2.6150   0.0000   0.0000   0.0000   0.2989
   8.250   1.2599   0.01385   0.00765  -0.0736  0.2446  1.0000  -2.7377   0.0000   0.0000   0.0000   0.2968
   8.500   1.2795   0.01440   0.00813  -0.0725  0.2282  1.0000  -2.8599   0.0000   0.0000   0.0000   0.2947
   8.750   1.2983   0.01498   0.00863  -0.0714  0.2120  1.0000  -2.9816   0.0000   0.0000   0.0000   0.2927
   9.000   1.3162   0.01554   0.00913  -0.0701  0.1964  1.0000  -3.1026   0.0000   0.0000   0.0000   0.2906
   9.250   1.3323   0.01614   0.00968  -0.0686  0.1831  1.0000  -3.2201   0.0000   0.0000   0.0000   0.2884
   9.500   1.3485   0.01678   0.01028  -0.0671  0.1707  1.0000  -3.3390   0.0000   0.0000   0.0000   0.2863
   9.750   1.3638   0.01750   0.01095  -0.0657  0.1595  1.0000  -3.4566   0.0000   0.0000   0.0000   0.2843
  10.000   1.3787   0.01826   0.01168  -0.0643  0.1495  1.0000  -3.5743   0.0000   0.0000   0.0000   0.2824
  10.250   1.3941   0.01901   0.01242  -0.0630  0.1398  1.0000  -3.6943   0.0000   0.0000   0.0000   0.2805
  10.500   1.4089   0.01982   0.01321  -0.0617  0.1303  1.0000  -3.8140   0.0000   0.0000   0.0000   0.2787
  10.750   1.4231   0.02069   0.01406  -0.0604  0.1212  1.0000  -3.9325   0.0000   0.0000   0.0000   0.2769
  11.000   1.4365   0.02162   0.01499  -0.0591  0.1126  1.0000  -4.0498   0.0000   0.0000   0.0000   0.2752
  11.250   1.4492   0.02263   0.01598  -0.0577  0.1045  1.0000  -4.1655   0.0000   0.0000   0.0000   0.2735
  11.500   1.4610   0.02371   0.01705  -0.0564  0.0970  1.0000  -4.2794   0.0000   0.0000   0.0000   0.2718
  11.750   1.4716   0.02490   0.01822  -0.0550  0.0902  1.0000  -4.3900   0.0000   0.0000   0.0000   0.2702
  12.000   1.4829   0.02607   0.01939  -0.0538  0.0836  1.0000  -4.5031   0.0000   0.0000   0.0000   0.2686
  12.250   1.4935   0.02729   0.02064  -0.0525  0.0777  1.0000  -4.6146   0.0000   0.0000   0.0000   0.2670
  12.500   1.5027   0.02865   0.02201  -0.0512  0.0723  1.0000  -4.7254   0.0000   0.0000   0.0000   0.2655
  12.750   1.5100   0.03019   0.02355  -0.0499  0.0673  1.0000  -4.8318   0.0000   0.0000   0.0000   0.2640
  13.000   1.5192   0.03160   0.02500  -0.0488  0.0627  1.0000  -4.9452   0.0000   0.0000   0.0000   0.2625
  13.250   1.5244   0.03337   0.02678  -0.0475  0.0588  1.0000  -5.0440   0.0000   0.0000   0.0000   0.2611
  13.500   1.5318   0.03497   0.02844  -0.0464  0.0551  1.0000  -5.1509   0.0000   0.0000   0.0000   0.2597
  13.750   1.5338   0.03711   0.03059  -0.0451  0.0520  1.0000  -5.2370   0.0000   0.0000   0.0000   0.2583
  14.000   1.5409   0.03882   0.03238  -0.0441  0.0492  1.0000  -5.3417   0.0000   0.0000   0.0000   0.2571
  14.250   1.5431   0.04102   0.03462  -0.0431  0.0467  1.0000  -5.4301   0.0000   0.0000   0.0000   0.2558
  14.500   1.5433   0.04350   0.03715  -0.0422  0.0447  1.0000  -5.5164   0.0000   0.0000   0.0000   0.2547
  14.750   1.5482   0.04560   0.03934  -0.0415  0.0429  1.0000  -5.6233   0.0000   0.0000   0.0000   0.2536
  15.000   1.5500   0.04808   0.04189  -0.0409  0.0412  1.0000  -5.7174   0.0000   0.0000   0.0000   0.2527
  15.250   1.5477   0.05109   0.04494  -0.0404  0.0397  1.0000  -5.7928   0.0000   0.0000   0.0000   0.2518
  15.500   1.5437   0.05438   0.04832  -0.0400  0.0385  1.0000  -5.8572   0.0000   0.0000   0.0000   0.2511
  15.750   1.5459   0.05705   0.05110  -0.0398  0.0375  1.0000  -5.9506   0.0000   0.0000   0.0000   0.2503
  16.000   1.5463   0.06000   0.05414  -0.0397  0.0364  1.0000  -6.0722   0.0000   0.0000   0.0000   0.2497
  16.250   1.5451   0.06319   0.05742  -0.0397  0.0355  1.0000  -6.1858   0.0000   0.0000   0.0000   0.2492
  16.500   1.5414   0.06677   0.06107  -0.0399  0.0346  1.0000  -6.2841   0.0000   0.0000   0.0000   0.2488
  16.750   1.5343   0.07084   0.06521  -0.0403  0.0338  1.0000  -6.3593   0.0000   0.0000   0.0000   0.2486
  17.000   1.5230   0.07550   0.06994  -0.0408  0.0330  1.0000  -6.4051   0.0000   0.0000   0.0000   0.2485
  17.250   1.5201   0.07917   0.07372  -0.0414  0.0325  1.0000  -6.5031   0.0000   0.0000   0.0000   0.2483
  17.500   1.5177   0.08284   0.07751  -0.0420  0.0320  1.0000  -6.6036   0.0000   0.0000   0.0000   0.2482
  17.750   1.5141   0.08670   0.08149  -0.0428  0.0315  1.0000  -6.6960   0.0000   0.0000   0.0000   0.2481
  18.000   1.5099   0.09069   0.08557  -0.0437  0.0310  1.0000  -6.7833   0.0000   0.0000   0.0000   0.2482
  18.250   1.5055   0.09474   0.08972  -0.0447  0.0304  1.0000  -6.8684   0.0000   0.0000   0.0000   0.2484
  18.500   1.5010   0.09886   0.09393  -0.0458  0.0299  1.0000  -6.9515   0.0000   0.0000   0.0000   0.2486
  18.750   1.4963   0.10303   0.09818  -0.0471  0.0295  1.0000  -7.0324   0.0000   0.0000   0.0000   0.2489
  19.000   1.4914   0.10727   0.10249  -0.0485  0.0290  1.0000  -7.1096   0.0000   0.0000   0.0000   0.2494
  19.250   1.4863   0.11152   0.10680  -0.0500  0.0285  1.0000  -7.1828   0.0000   0.0000   0.0000   0.2498
  19.500   1.4815   0.11560   0.11093  -0.0514  0.0281  1.0000  -7.2557   0.0000   0.0000   0.0000   0.2503
  19.750   1.4778   0.11928   0.11465  -0.0525  0.0275  1.0000  -7.3339   0.0000   0.0000   0.0000   0.2505
  20.000   1.4762   0.12320   0.11868  -0.0543  0.0273  1.0000  -7.4251   0.0000   0.0000   0.0000   0.2510


