xflr5 v6.61

 Calculated polar for: QX0126

 1 1 Reynolds number fixed          Mach number fixed         

 xtrf =   1.000 (top)        1.000 (bottom)
 Mach =   0.000     Re =     0.480 e 6     Ncrit =   9.000

  alpha     CL        CD       CDp       Cm    Top Xtr Bot Xtr   Cpmin    Chinge    XCp    
 ------- -------- --------- --------- -------- ------- ------- -------- --------- ---------
 -10.000  -0.6800   0.02437   0.01906  -0.0856  0.8914  0.0280  -5.9208   0.0000   0.0000   0.0000   0.1107
  -9.750  -0.6571   0.02349   0.01814  -0.0855  0.8868  0.0286  -5.7052   0.0000   0.0000   0.0000   0.1067
  -9.500  -0.6340   0.02274   0.01730  -0.0852  0.8828  0.0293  -5.4995   0.0000   0.0000   0.0000   0.1025
  -9.250  -0.6102   0.02188   0.01632  -0.0850  0.8786  0.0300  -5.3038   0.0000   0.0000   0.0000   0.0977
  -9.000  -0.5863   0.02105   0.01534  -0.0848  0.8747  0.0308  -5.1115   0.0000   0.0000   0.0000   0.0925
  -8.750  -0.5616   0.02032   0.01445  -0.0846  0.8712  0.0316  -4.9179   0.0000   0.0000   0.0000   0.0866
  -8.500  -0.5358   0.01977   0.01374  -0.0844  0.8672  0.0323  -4.7198   0.0000   0.0000   0.0000   0.0797
  -8.250  -0.5130   0.01836   0.01220  -0.0840  0.8639  0.0333  -4.5555   0.0000   0.0000   0.0000   0.0735
  -8.000  -0.4875   0.01761   0.01143  -0.0840  0.8597  0.0342  -4.3649   0.0000   0.0000   0.0000   0.0650
  -7.750  -0.4616   0.01707   0.01083  -0.0838  0.8561  0.0352  -4.1768   0.0000   0.0000   0.0000   0.0557
  -7.500  -0.4351   0.01658   0.01027  -0.0836  0.8522  0.0364  -3.9910   0.0000   0.0000   0.0000   0.0448
  -7.250  -0.4084   0.01611   0.00970  -0.0835  0.8484  0.0376  -3.8100   0.0000   0.0000   0.0000   0.0325
  -7.000  -0.3819   0.01561   0.00908  -0.0833  0.8451  0.0386  -3.6353   0.0000   0.0000   0.0000   0.0187
  -6.750  -0.3564   0.01473   0.00821  -0.0831  0.8408  0.0403  -3.4807   0.0000   0.0000   0.0000   0.0033
  -6.500  -0.3296   0.01432   0.00776  -0.0830  0.8374  0.0420  -3.3124   0.0000   0.0000   0.0000  -0.0155
  -6.250  -0.3021   0.01397   0.00736  -0.0829  0.8333  0.0440  -3.1464   0.0000   0.0000   0.0000  -0.0388
  -6.000  -0.2754   0.01343   0.00677  -0.0828  0.8297  0.0464  -3.0018   0.0000   0.0000   0.0000  -0.0653
  -5.750  -0.2480   0.01307   0.00640  -0.0827  0.8262  0.0492  -2.8492   0.0000   0.0000   0.0000  -0.0989
  -5.500  -0.2200   0.01281   0.00609  -0.0827  0.8221  0.0521  -2.6993   0.0000   0.0000   0.0000  -0.1423
  -5.250  -0.1931   0.01235   0.00561  -0.0825  0.8188  0.0559  -2.5571   0.0000   0.0000   0.0000  -0.1951
  -5.000  -0.1648   0.01213   0.00536  -0.0826  0.8140  0.0598  -2.4184   0.0000   0.0000   0.0000  -0.2704
  -4.750  -0.1373   0.01175   0.00500  -0.0825  0.8105  0.0648  -2.2837   0.0000   0.0000   0.0000  -0.3725
  -4.500  -0.1092   0.01148   0.00472  -0.0825  0.8063  0.0702  -2.1497   0.0000   0.0000   0.0000  -0.5311
  -4.250  -0.0810   0.01125   0.00448  -0.0825  0.8024  0.0769  -2.0160   0.0000   0.0000   0.0000  -0.8003
  -4.000  -0.0529   0.01100   0.00425  -0.0825  0.7983  0.0858  -1.8843   0.0000   0.0000   0.0000  -1.3568
  -3.750  -0.0247   0.01073   0.00403  -0.0826  0.7941  0.0972  -1.7632   0.0000   0.0000   0.0000  -3.1794
  -3.500   0.0035   0.01051   0.00383  -0.0826  0.7902  0.1115  -1.6430   0.0000   0.0000   0.0000  24.3378
  -3.250   0.0319   0.01029   0.00368  -0.0827  0.7855  0.1283  -1.5240   0.0000   0.0000   0.0000   2.9034
  -3.000   0.0601   0.01006   0.00349  -0.0827  0.7813  0.1458  -1.4075   0.0000   0.0000   0.0000   1.6536
  -2.750   0.0884   0.00983   0.00335  -0.0828  0.7763  0.1681  -1.2929   0.0000   0.0000   0.0000   1.2030
  -2.500   0.1168   0.00962   0.00322  -0.0828  0.7718  0.1960  -1.1805   0.0000   0.0000   0.0000   0.9706
  -2.250   0.1451   0.00941   0.00310  -0.0829  0.7669  0.2269  -1.0731   0.0000   0.0000   0.0000   0.8292
  -2.000   0.1735   0.00920   0.00300  -0.0830  0.7623  0.2621  -0.9726   0.0000   0.0000   0.0000   0.7340
  -1.750   0.2018   0.00897   0.00289  -0.0831  0.7572  0.3042  -0.8746   0.0000   0.0000   0.0000   0.6656
  -1.500   0.2299   0.00871   0.00281  -0.0832  0.7517  0.3588  -0.7790   0.0000   0.0000   0.0000   0.6144
  -1.250   0.2577   0.00840   0.00272  -0.0832  0.7468  0.4310  -0.7019   0.0000   0.0000   0.0000   0.5744
  -1.000   0.2850   0.00806   0.00269  -0.0832  0.7406  0.5243  -0.6397   0.0000   0.0000   0.0000   0.5425
  -0.750   0.3123   0.00779   0.00268  -0.0829  0.7349  0.6066  -0.6593   0.0000   0.0000   0.0000   0.5157
  -0.500   0.3394   0.00758   0.00267  -0.0826  0.7292  0.6789  -0.6798   0.0000   0.0000   0.0000   0.4929
  -0.250   0.3664   0.00744   0.00268  -0.0822  0.7225  0.7331  -0.7015   0.0000   0.0000   0.0000   0.4733
   0.000   0.3935   0.00735   0.00269  -0.0817  0.7162  0.7750  -0.7266   0.0000   0.0000   0.0000   0.4563
   0.250   0.4203   0.00727   0.00267  -0.0812  0.7096  0.8115  -0.7518   0.0000   0.0000   0.0000   0.4413
   0.500   0.4465   0.00720   0.00267  -0.0805  0.7021  0.8460  -0.7774   0.0000   0.0000   0.0000   0.4280
   0.750   0.4715   0.00714   0.00267  -0.0795  0.6938  0.8820  -0.8025   0.0000   0.0000   0.0000   0.4160
   1.000   0.4963   0.00709   0.00266  -0.0784  0.6852  0.9166  -0.8277   0.0000   0.0000   0.0000   0.4050
   1.250   0.5248   0.00706   0.00263  -0.0781  0.6762  0.9509  -0.8568   0.0000   0.0000   0.0000   0.3956
   1.500   0.5627   0.00707   0.00260  -0.0800  0.6672  0.9790  -0.8918   0.0000   0.0000   0.0000   0.3886
   1.750   0.6048   0.00709   0.00258  -0.0830  0.6579  0.9991  -0.9347   0.0000   0.0000   0.0000   0.3834
   2.000   0.6321   0.00716   0.00258  -0.0829  0.6482  1.0000  -0.9699   0.0000   0.0000   0.0000   0.3771
   2.250   0.6591   0.00723   0.00260  -0.0828  0.6375  1.0000  -1.0054   0.0000   0.0000   0.0000   0.3712
   2.500   0.6863   0.00732   0.00264  -0.0826  0.6256  1.0000  -1.0423   0.0000   0.0000   0.0000   0.3657
   2.750   0.7134   0.00743   0.00268  -0.0824  0.6130  1.0000  -1.0799   0.0000   0.0000   0.0000   0.3607
   3.000   0.7405   0.00754   0.00273  -0.0823  0.5997  1.0000  -1.1188   0.0000   0.0000   0.0000   0.3560
   3.250   0.7677   0.00768   0.00281  -0.0822  0.5868  1.0000  -1.1593   0.0000   0.0000   0.0000   0.3516
   3.500   0.7948   0.00783   0.00290  -0.0820  0.5740  1.0000  -1.2051   0.0000   0.0000   0.0000   0.3475
   3.750   0.8218   0.00798   0.00300  -0.0819  0.5602  1.0000  -1.2512   0.0000   0.0000   0.0000   0.3436
   4.000   0.8486   0.00816   0.00311  -0.0817  0.5465  1.0000  -1.2975   0.0000   0.0000   0.0000   0.3400
   4.250   0.8753   0.00835   0.00325  -0.0815  0.5318  1.0000  -1.3481   0.0000   0.0000   0.0000   0.3366
   4.500   0.9017   0.00856   0.00339  -0.0813  0.5162  1.0000  -1.4012   0.0000   0.0000   0.0000   0.3333
   4.750   0.9278   0.00878   0.00355  -0.0810  0.4997  1.0000  -1.4568   0.0000   0.0000   0.0000   0.3302
   5.000   0.9537   0.00903   0.00373  -0.0807  0.4834  1.0000  -1.5185   0.0000   0.0000   0.0000   0.3273
   5.250   0.9796   0.00927   0.00392  -0.0805  0.4672  1.0000  -1.5820   0.0000   0.0000   0.0000   0.3244
   5.500   1.0051   0.00954   0.00412  -0.0801  0.4499  1.0000  -1.6492   0.0000   0.0000   0.0000   0.3217
   5.750   1.0302   0.00983   0.00435  -0.0798  0.4320  1.0000  -1.7167   0.0000   0.0000   0.0000   0.3191
   6.000   1.0552   0.01014   0.00459  -0.0794  0.4142  1.0000  -1.7863   0.0000   0.0000   0.0000   0.3166
   6.250   1.0796   0.01047   0.00485  -0.0789  0.3956  1.0000  -1.8638   0.0000   0.0000   0.0000   0.3142
   6.500   1.1036   0.01084   0.00514  -0.0784  0.3767  1.0000  -1.9589   0.0000   0.0000   0.0000   0.3118
   6.750   1.1273   0.01121   0.00544  -0.0779  0.3578  1.0000  -2.0604   0.0000   0.0000   0.0000   0.3095
   7.000   1.1505   0.01161   0.00576  -0.0773  0.3393  1.0000  -2.1625   0.0000   0.0000   0.0000   0.3073
   7.250   1.1730   0.01205   0.00612  -0.0766  0.3201  1.0000  -2.2647   0.0000   0.0000   0.0000   0.3051
   7.500   1.1952   0.01250   0.00649  -0.0759  0.3009  1.0000  -2.3677   0.0000   0.0000   0.0000   0.3029
   7.750   1.2170   0.01297   0.00688  -0.0751  0.2827  1.0000  -2.4882   0.0000   0.0000   0.0000   0.3008
   8.250   1.2585   0.01398   0.00775  -0.0733  0.2486  1.0000  -2.7327   0.0000   0.0000   0.0000   0.2967
   8.500   1.2782   0.01452   0.00822  -0.0723  0.2319  1.0000  -2.8550   0.0000   0.0000   0.0000   0.2946
   8.750   1.2971   0.01509   0.00872  -0.0712  0.2159  1.0000  -2.9768   0.0000   0.0000   0.0000   0.2925
   9.000   1.3143   0.01568   0.00924  -0.0698  0.2005  1.0000  -3.0957   0.0000   0.0000   0.0000   0.2904
   9.250   1.3302   0.01630   0.00980  -0.0682  0.1865  1.0000  -3.2127   0.0000   0.0000   0.0000   0.2882
   9.500   1.3462   0.01695   0.01041  -0.0668  0.1741  1.0000  -3.3308   0.0000   0.0000   0.0000   0.2861
   9.750   1.3618   0.01765   0.01108  -0.0654  0.1625  1.0000  -3.4491   0.0000   0.0000   0.0000   0.2841
  10.000   1.3767   0.01842   0.01181  -0.0639  0.1520  1.0000  -3.5664   0.0000   0.0000   0.0000   0.2822
  10.250   1.3913   0.01922   0.01259  -0.0626  0.1422  1.0000  -3.6841   0.0000   0.0000   0.0000   0.2803
  10.500   1.4055   0.02007   0.01342  -0.0612  0.1328  1.0000  -3.8017   0.0000   0.0000   0.0000   0.2785
  10.750   1.4196   0.02095   0.01428  -0.0599  0.1236  1.0000  -3.9196   0.0000   0.0000   0.0000   0.2767
  11.000   1.4329   0.02190   0.01522  -0.0586  0.1150  1.0000  -4.0364   0.0000   0.0000   0.0000   0.2750
  11.250   1.4454   0.02293   0.01623  -0.0573  0.1068  1.0000  -4.1512   0.0000   0.0000   0.0000   0.2733
  11.750   1.4686   0.02515   0.01845  -0.0547  0.0920  1.0000  -4.3775   0.0000   0.0000   0.0000   0.2700
  12.000   1.4798   0.02633   0.01963  -0.0534  0.0855  1.0000  -4.4900   0.0000   0.0000   0.0000   0.2684
  12.250   1.4897   0.02761   0.02094  -0.0522  0.0795  1.0000  -4.5988   0.0000   0.0000   0.0000   0.2669
  12.500   1.4978   0.02907   0.02238  -0.0508  0.0740  1.0000  -4.7051   0.0000   0.0000   0.0000   0.2653
  12.750   1.5068   0.03047   0.02381  -0.0496  0.0688  1.0000  -4.8176   0.0000   0.0000   0.0000   0.2638
  13.000   1.5145   0.03200   0.02538  -0.0484  0.0643  1.0000  -4.9249   0.0000   0.0000   0.0000   0.2623
  13.250   1.5197   0.03379   0.02717  -0.0471  0.0601  1.0000  -5.0236   0.0000   0.0000   0.0000   0.2609
  13.500   1.5268   0.03543   0.02887  -0.0460  0.0564  1.0000  -5.1284   0.0000   0.0000   0.0000   0.2595
  13.750   1.5301   0.03745   0.03092  -0.0448  0.0532  1.0000  -5.2197   0.0000   0.0000   0.0000   0.2582
  14.000   1.5345   0.03942   0.03295  -0.0438  0.0504  1.0000  -5.3132   0.0000   0.0000   0.0000   0.2569
  14.250   1.5385   0.04147   0.03506  -0.0428  0.0479  1.0000  -5.4064   0.0000   0.0000   0.0000   0.2557
  14.500   1.5369   0.04414   0.03776  -0.0419  0.0457  1.0000  -5.4857   0.0000   0.0000   0.0000   0.2546
  14.750   1.5404   0.04640   0.04011  -0.0412  0.0439  1.0000  -5.5852   0.0000   0.0000   0.0000   0.2536
  15.000   1.5436   0.04876   0.04256  -0.0406  0.0422  1.0000  -5.6841   0.0000   0.0000   0.0000   0.2526
  15.250   1.5436   0.05153   0.04539  -0.0402  0.0407  1.0000  -5.7697   0.0000   0.0000   0.0000   0.2517
  15.500   1.5388   0.05493   0.04884  -0.0398  0.0394  1.0000  -5.8314   0.0000   0.0000   0.0000   0.2510
  15.750   1.5364   0.05815   0.05215  -0.0396  0.0383  1.0000  -5.9016   0.0000   0.0000   0.0000   0.2504
  16.000   1.5374   0.06103   0.05514  -0.0395  0.0373  1.0000  -6.0071   0.0000   0.0000   0.0000   0.2497
  16.250   1.5368   0.06418   0.05838  -0.0396  0.0363  1.0000  -6.1225   0.0000   0.0000   0.0000   0.2492
  16.500   1.5349   0.06754   0.06184  -0.0398  0.0354  1.0000  -6.2305   0.0000   0.0000   0.0000   0.2488
  16.750   1.5306   0.07128   0.06565  -0.0402  0.0346  1.0000  -6.3230   0.0000   0.0000   0.0000   0.2485
  17.000   1.5234   0.07545   0.06988  -0.0407  0.0338  1.0000  -6.3958   0.0000   0.0000   0.0000   0.2484
  17.250   1.5128   0.08006   0.07457  -0.0413  0.0331  1.0000  -6.4440   0.0000   0.0000   0.0000   0.2484
  17.500   1.5083   0.08398   0.07859  -0.0420  0.0326  1.0000  -6.5295   0.0000   0.0000   0.0000   0.2483
  17.750   1.5059   0.08771   0.08243  -0.0428  0.0321  1.0000  -6.6278   0.0000   0.0000   0.0000   0.2483
  18.000   1.5025   0.09159   0.08643  -0.0436  0.0316  1.0000  -6.7188   0.0000   0.0000   0.0000   0.2483
  18.250   1.4987   0.09555   0.09049  -0.0446  0.0311  1.0000  -6.8070   0.0000   0.0000   0.0000   0.2485
  18.500   1.4949   0.09957   0.09461  -0.0457  0.0306  1.0000  -6.8929   0.0000   0.0000   0.0000   0.2487
  18.750   1.4910   0.10362   0.09875  -0.0470  0.0301  1.0000  -6.9779   0.0000   0.0000   0.0000   0.2490
  19.000   1.4872   0.10770   0.10291  -0.0483  0.0296  1.0000  -7.0618   0.0000   0.0000   0.0000   0.2493
  19.250   1.4834   0.11180   0.10708  -0.0498  0.0291  1.0000  -7.1442   0.0000   0.0000   0.0000   0.2498
  19.500   1.4796   0.11585   0.11120  -0.0513  0.0287  1.0000  -7.2253   0.0000   0.0000   0.0000   0.2503
  19.750   1.4764   0.11972   0.11511  -0.0528  0.0282  1.0000  -7.3086   0.0000   0.0000   0.0000   0.2507
  20.000   1.4746   0.12304   0.11845  -0.0538  0.0276  1.0000  -7.3997   0.0000   0.0000   0.0000   0.2507


