xflr5 v6.61

 Calculated polar for: QX0126

 1 1 Reynolds number fixed          Mach number fixed         

 xtrf =   1.000 (top)        1.000 (bottom)
 Mach =   0.000     Re =     0.540 e 6     Ncrit =   9.000

  alpha     CL        CD       CDp       Cm    Top Xtr Bot Xtr   Cpmin    Chinge    XCp    
 ------- -------- --------- --------- -------- ------- ------- -------- --------- ---------
 -10.000  -0.6876   0.02329   0.01803  -0.0842  0.8823  0.0267  -6.0010   0.0000   0.0000   0.0000   0.1143
  -9.750  -0.6636   0.02261   0.01716  -0.0840  0.8780  0.0272  -5.7925   0.0000   0.0000   0.0000   0.1103
  -9.500  -0.6439   0.02079   0.01518  -0.0836  0.8740  0.0280  -5.6368   0.0000   0.0000   0.0000   0.1071
  -9.250  -0.6197   0.01998   0.01432  -0.0835  0.8702  0.0286  -5.4269   0.0000   0.0000   0.0000   0.1024
  -9.000  -0.5947   0.01936   0.01364  -0.0834  0.8664  0.0293  -5.2129   0.0000   0.0000   0.0000   0.0970
  -8.750  -0.5694   0.01881   0.01299  -0.0832  0.8633  0.0301  -5.0022   0.0000   0.0000   0.0000   0.0912
  -8.500  -0.5434   0.01822   0.01232  -0.0831  0.8592  0.0310  -4.7952   0.0000   0.0000   0.0000   0.0844
  -8.250  -0.5175   0.01767   0.01164  -0.0829  0.8559  0.0318  -4.5943   0.0000   0.0000   0.0000   0.0771
  -8.000  -0.4909   0.01721   0.01106  -0.0828  0.8521  0.0324  -4.4006   0.0000   0.0000   0.0000   0.0686
  -7.750  -0.4669   0.01601   0.00980  -0.0825  0.8482  0.0335  -4.2394   0.0000   0.0000   0.0000   0.0605
  -7.500  -0.4407   0.01551   0.00927  -0.0824  0.8449  0.0346  -4.0475   0.0000   0.0000   0.0000   0.0503
  -7.250  -0.4136   0.01510   0.00882  -0.0824  0.8409  0.0359  -3.8562   0.0000   0.0000   0.0000   0.0379
  -7.000  -0.3867   0.01467   0.00831  -0.0822  0.8376  0.0372  -3.6734   0.0000   0.0000   0.0000   0.0243
  -6.750  -0.3592   0.01431   0.00786  -0.0822  0.8336  0.0382  -3.5027   0.0000   0.0000   0.0000   0.0079
  -6.500  -0.3335   0.01354   0.00707  -0.0820  0.8299  0.0401  -3.3487   0.0000   0.0000   0.0000  -0.0095
  -6.250  -0.3061   0.01319   0.00670  -0.0819  0.8266  0.0421  -3.1776   0.0000   0.0000   0.0000  -0.0316
  -6.000  -0.2782   0.01290   0.00636  -0.0819  0.8225  0.0443  -3.0213   0.0000   0.0000   0.0000  -0.0591
  -5.750  -0.2513   0.01240   0.00583  -0.0818  0.8193  0.0471  -2.8752   0.0000   0.0000   0.0000  -0.0908
  -5.500  -0.2232   0.01212   0.00555  -0.0819  0.8152  0.0501  -2.7206   0.0000   0.0000   0.0000  -0.1328
  -5.250  -0.1954   0.01179   0.00517  -0.0818  0.8113  0.0535  -2.5756   0.0000   0.0000   0.0000  -0.1858
  -5.000  -0.1675   0.01150   0.00488  -0.0818  0.8075  0.0575  -2.4352   0.0000   0.0000   0.0000  -0.2573
  -4.750  -0.1394   0.01122   0.00458  -0.0818  0.8035  0.0619  -2.2982   0.0000   0.0000   0.0000  -0.3582
  -4.500  -0.1112   0.01099   0.00433  -0.0818  0.8002  0.0671  -2.1605   0.0000   0.0000   0.0000  -0.5105
  -4.250  -0.0830   0.01072   0.00410  -0.0819  0.7956  0.0737  -2.0260   0.0000   0.0000   0.0000  -0.7681
  -4.000  -0.0547   0.01049   0.00387  -0.0819  0.7921  0.0822  -1.8929   0.0000   0.0000   0.0000  -1.2913
  -3.750  -0.0261   0.01029   0.00369  -0.0820  0.7875  0.0931  -1.7702   0.0000   0.0000   0.0000  -2.9717
  -3.500   0.0021   0.01004   0.00348  -0.0820  0.7836  0.1062  -1.6495   0.0000   0.0000   0.0000  39.9514
  -3.250   0.0306   0.00983   0.00334  -0.0821  0.7789  0.1223  -1.5294   0.0000   0.0000   0.0000   2.9940
  -3.000   0.0590   0.00963   0.00317  -0.0822  0.7746  0.1395  -1.4118   0.0000   0.0000   0.0000   1.6695
  -2.750   0.0875   0.00941   0.00304  -0.0823  0.7697  0.1595  -1.2966   0.0000   0.0000   0.0000   1.2073
  -2.500   0.1160   0.00921   0.00290  -0.0824  0.7654  0.1862  -1.1835   0.0000   0.0000   0.0000   0.9713
  -2.250   0.1445   0.00901   0.00280  -0.0825  0.7604  0.2153  -1.0750   0.0000   0.0000   0.0000   0.8286
  -2.000   0.1730   0.00882   0.00269  -0.0826  0.7560  0.2485  -0.9741   0.0000   0.0000   0.0000   0.7327
  -1.750   0.2014   0.00861   0.00261  -0.0827  0.7503  0.2853  -0.8756   0.0000   0.0000   0.0000   0.6643
  -1.500   0.2297   0.00838   0.00252  -0.0828  0.7452  0.3342  -0.7796   0.0000   0.0000   0.0000   0.6129
  -1.250   0.2579   0.00811   0.00244  -0.0829  0.7395  0.3947  -0.7022   0.0000   0.0000   0.0000   0.5729
  -1.000   0.2856   0.00779   0.00240  -0.0829  0.7337  0.4806  -0.6405   0.0000   0.0000   0.0000   0.5411
  -0.750   0.3130   0.00750   0.00236  -0.0828  0.7284  0.5700  -0.6603   0.0000   0.0000   0.0000   0.5146
  -0.500   0.3405   0.00728   0.00237  -0.0826  0.7218  0.6433  -0.6807   0.0000   0.0000   0.0000   0.4922
  -0.250   0.3678   0.00712   0.00239  -0.0823  0.7155  0.7060  -0.7026   0.0000   0.0000   0.0000   0.4728
   0.000   0.3952   0.00702   0.00239  -0.0820  0.7092  0.7515  -0.7280   0.0000   0.0000   0.0000   0.4560
   0.250   0.4223   0.00694   0.00239  -0.0816  0.7020  0.7888  -0.7533   0.0000   0.0000   0.0000   0.4413
   0.500   0.4493   0.00688   0.00239  -0.0811  0.6939  0.8232  -0.7794   0.0000   0.0000   0.0000   0.4283
   0.750   0.4752   0.00681   0.00241  -0.0804  0.6854  0.8583  -0.8051   0.0000   0.0000   0.0000   0.4165
   1.000   0.5002   0.00677   0.00241  -0.0794  0.6765  0.8935  -0.8303   0.0000   0.0000   0.0000   0.4057
   1.250   0.5254   0.00674   0.00242  -0.0784  0.6677  0.9273  -0.8574   0.0000   0.0000   0.0000   0.3959
   1.500   0.5560   0.00674   0.00241  -0.0786  0.6590  0.9607  -0.8880   0.0000   0.0000   0.0000   0.3879
   1.750   0.5952   0.00676   0.00240  -0.0809  0.6496  0.9863  -0.9283   0.0000   0.0000   0.0000   0.3821
   2.000   0.6322   0.00681   0.00239  -0.0829  0.6391  1.0000  -0.9704   0.0000   0.0000   0.0000   0.3770
   2.250   0.6592   0.00690   0.00241  -0.0827  0.6278  1.0000  -1.0059   0.0000   0.0000   0.0000   0.3711
   2.500   0.6864   0.00699   0.00245  -0.0826  0.6155  1.0000  -1.0429   0.0000   0.0000   0.0000   0.3657
   3.000   0.7407   0.00723   0.00256  -0.0823  0.5892  1.0000  -1.1195   0.0000   0.0000   0.0000   0.3559
   3.250   0.7679   0.00737   0.00264  -0.0822  0.5764  1.0000  -1.1601   0.0000   0.0000   0.0000   0.3516
   3.500   0.7951   0.00752   0.00273  -0.0821  0.5631  1.0000  -1.2060   0.0000   0.0000   0.0000   0.3475
   3.750   0.8221   0.00769   0.00283  -0.0819  0.5494  1.0000  -1.2521   0.0000   0.0000   0.0000   0.3437
   4.000   0.8491   0.00786   0.00295  -0.0818  0.5352  1.0000  -1.2986   0.0000   0.0000   0.0000   0.3401
   4.250   0.8757   0.00807   0.00309  -0.0816  0.5205  1.0000  -1.3490   0.0000   0.0000   0.0000   0.3366
   4.500   0.9022   0.00828   0.00323  -0.0814  0.5041  1.0000  -1.4022   0.0000   0.0000   0.0000   0.3334
   4.750   0.9285   0.00850   0.00339  -0.0812  0.4874  1.0000  -1.4582   0.0000   0.0000   0.0000   0.3303
   5.000   0.9547   0.00873   0.00356  -0.0809  0.4715  1.0000  -1.5203   0.0000   0.0000   0.0000   0.3274
   5.250   0.9805   0.00899   0.00376  -0.0807  0.4552  1.0000  -1.5841   0.0000   0.0000   0.0000   0.3246
   5.500   1.0060   0.00927   0.00396  -0.0804  0.4376  1.0000  -1.6514   0.0000   0.0000   0.0000   0.3219
   5.750   1.0313   0.00956   0.00418  -0.0800  0.4198  1.0000  -1.7191   0.0000   0.0000   0.0000   0.3193
   6.000   1.0563   0.00987   0.00442  -0.0797  0.4018  1.0000  -1.7889   0.0000   0.0000   0.0000   0.3168
   6.250   1.0809   0.01020   0.00468  -0.0792  0.3830  1.0000  -1.8668   0.0000   0.0000   0.0000   0.3144
   6.500   1.1052   0.01055   0.00496  -0.0788  0.3640  1.0000  -1.9643   0.0000   0.0000   0.0000   0.3121
   6.750   1.1291   0.01092   0.00525  -0.0783  0.3454  1.0000  -2.0664   0.0000   0.0000   0.0000   0.3098
   7.000   1.1526   0.01131   0.00556  -0.0777  0.3266  1.0000  -2.1692   0.0000   0.0000   0.0000   0.3076
   7.250   1.1755   0.01174   0.00591  -0.0771  0.3070  1.0000  -2.2722   0.0000   0.0000   0.0000   0.3054
   7.500   1.1980   0.01218   0.00627  -0.0764  0.2884  1.0000  -2.3765   0.0000   0.0000   0.0000   0.3033
   7.750   1.2201   0.01263   0.00665  -0.0757  0.2712  1.0000  -2.4995   0.0000   0.0000   0.0000   0.3012
   8.000   1.2415   0.01312   0.00706  -0.0749  0.2541  1.0000  -2.6227   0.0000   0.0000   0.0000   0.2991
   8.250   1.2621   0.01364   0.00749  -0.0740  0.2372  1.0000  -2.7460   0.0000   0.0000   0.0000   0.2970
   8.750   1.3014   0.01473   0.00843  -0.0720  0.2042  1.0000  -2.9927   0.0000   0.0000   0.0000   0.2930
   9.000   1.3199   0.01528   0.00893  -0.0708  0.1893  1.0000  -3.1155   0.0000   0.0000   0.0000   0.2909
   9.250   1.3360   0.01588   0.00947  -0.0692  0.1766  1.0000  -3.2333   0.0000   0.0000   0.0000   0.2887
   9.500   1.3525   0.01649   0.01004  -0.0678  0.1649  1.0000  -3.3535   0.0000   0.0000   0.0000   0.2867
   9.750   1.3686   0.01716   0.01068  -0.0664  0.1543  1.0000  -3.4736   0.0000   0.0000   0.0000   0.2847
  10.000   1.3842   0.01787   0.01136  -0.0650  0.1444  1.0000  -3.5936   0.0000   0.0000   0.0000   0.2827
  10.250   1.3994   0.01862   0.01209  -0.0637  0.1348  1.0000  -3.7137   0.0000   0.0000   0.0000   0.2809
  10.500   1.4141   0.01943   0.01287  -0.0624  0.1255  1.0000  -3.8334   0.0000   0.0000   0.0000   0.2790
  10.750   1.4283   0.02029   0.01371  -0.0610  0.1167  1.0000  -3.9524   0.0000   0.0000   0.0000   0.2773
  11.000   1.4418   0.02121   0.01462  -0.0597  0.1082  1.0000  -4.0703   0.0000   0.0000   0.0000   0.2755
  11.250   1.4548   0.02219   0.01558  -0.0584  0.1003  1.0000  -4.1875   0.0000   0.0000   0.0000   0.2738
  11.500   1.4672   0.02322   0.01661  -0.0571  0.0931  1.0000  -4.3038   0.0000   0.0000   0.0000   0.2721
  11.750   1.4793   0.02430   0.01769  -0.0558  0.0865  1.0000  -4.4195   0.0000   0.0000   0.0000   0.2705
  12.000   1.4902   0.02547   0.01886  -0.0545  0.0803  1.0000  -4.5321   0.0000   0.0000   0.0000   0.2689
  12.250   1.4994   0.02680   0.02018  -0.0532  0.0746  1.0000  -4.6395   0.0000   0.0000   0.0000   0.2673
  12.500   1.5103   0.02801   0.02143  -0.0520  0.0693  1.0000  -4.7574   0.0000   0.0000   0.0000   0.2658
  12.750   1.5193   0.02941   0.02284  -0.0507  0.0646  1.0000  -4.8702   0.0000   0.0000   0.0000   0.2643
  13.000   1.5261   0.03099   0.02442  -0.0494  0.0601  1.0000  -4.9762   0.0000   0.0000   0.0000   0.2628
  13.250   1.5347   0.03246   0.02594  -0.0482  0.0562  1.0000  -5.0879   0.0000   0.0000   0.0000   0.2614
  13.500   1.5390   0.03433   0.02782  -0.0469  0.0527  1.0000  -5.1841   0.0000   0.0000   0.0000   0.2599
  13.750   1.5463   0.03597   0.02953  -0.0459  0.0497  1.0000  -5.2906   0.0000   0.0000   0.0000   0.2586
  14.000   1.5504   0.03793   0.03152  -0.0448  0.0470  1.0000  -5.3860   0.0000   0.0000   0.0000   0.2573
  14.250   1.5518   0.04017   0.03382  -0.0437  0.0447  1.0000  -5.4729   0.0000   0.0000   0.0000   0.2560
  14.500   1.5575   0.04209   0.03581  -0.0428  0.0428  1.0000  -5.5846   0.0000   0.0000   0.0000   0.2549
  14.750   1.5600   0.04439   0.03817  -0.0420  0.0410  1.0000  -5.6831   0.0000   0.0000   0.0000   0.2538
  15.000   1.5577   0.04726   0.04109  -0.0413  0.0393  1.0000  -5.7597   0.0000   0.0000   0.0000   0.2528
  15.250   1.5584   0.04992   0.04384  -0.0407  0.0381  1.0000  -5.8475   0.0000   0.0000   0.0000   0.2519
  15.500   1.5610   0.05245   0.04646  -0.0404  0.0370  1.0000  -5.9446   0.0000   0.0000   0.0000   0.2510
  15.750   1.5619   0.05522   0.04932  -0.0401  0.0359  1.0000  -6.0671   0.0000   0.0000   0.0000   0.2503
  16.000   1.5605   0.05834   0.05250  -0.0400  0.0349  1.0000  -6.1815   0.0000   0.0000   0.0000   0.2496
  16.250   1.5554   0.06197   0.05620  -0.0400  0.0339  1.0000  -6.2729   0.0000   0.0000   0.0000   0.2492
  16.500   1.5449   0.06637   0.06068  -0.0402  0.0330  1.0000  -6.3279   0.0000   0.0000   0.0000   0.2489
  16.750   1.5434   0.06972   0.06415  -0.0404  0.0325  1.0000  -6.4384   0.0000   0.0000   0.0000   0.2485
  17.000   1.5418   0.07315   0.06768  -0.0408  0.0319  1.0000  -6.5484   0.0000   0.0000   0.0000   0.2482
  17.250   1.5387   0.07682   0.07146  -0.0413  0.0313  1.0000  -6.6484   0.0000   0.0000   0.0000   0.2479
  17.500   1.5346   0.08069   0.07543  -0.0420  0.0307  1.0000  -6.7409   0.0000   0.0000   0.0000   0.2478
  17.750   1.5299   0.08469   0.07953  -0.0427  0.0302  1.0000  -6.8287   0.0000   0.0000   0.0000   0.2478
  18.000   1.5247   0.08881   0.08374  -0.0436  0.0297  1.0000  -6.9124   0.0000   0.0000   0.0000   0.2479
  18.250   1.5186   0.09309   0.08811  -0.0447  0.0292  1.0000  -6.9892   0.0000   0.0000   0.0000   0.2481
  18.500   1.5115   0.09757   0.09266  -0.0459  0.0288  1.0000  -7.0564   0.0000   0.0000   0.0000   0.2485
  18.750   1.5034   0.10220   0.09736  -0.0473  0.0283  1.0000  -7.1131   0.0000   0.0000   0.0000   0.2489
  19.000   1.4946   0.10685   0.10207  -0.0487  0.0278  1.0000  -7.1613   0.0000   0.0000   0.0000   0.2494
  19.250   1.4895   0.11104   0.10634  -0.0500  0.0274  1.0000  -7.2329   0.0000   0.0000   0.0000   0.2498
  19.500   1.4868   0.11503   0.11044  -0.0515  0.0271  1.0000  -7.3220   0.0000   0.0000   0.0000   0.2502
  19.750   1.4841   0.11905   0.11457  -0.0532  0.0268  1.0000  -7.4082   0.0000   0.0000   0.0000   0.2508
  20.000   1.4813   0.12309   0.11871  -0.0550  0.0265  1.0000  -7.4925   0.0000   0.0000   0.0000   0.2514


