xflr5 v6.61

 Calculated polar for: QX0126

 1 1 Reynolds number fixed          Mach number fixed         

 xtrf =   1.000 (top)        1.000 (bottom)
 Mach =   0.000     Re =     0.200 e 6     Ncrit =   9.000

  alpha     CL        CD       CDp       Cm    Top Xtr Bot Xtr   Cpmin    Chinge    XCp    
 ------- -------- --------- --------- -------- ------- ------- -------- --------- ---------
  -9.250  -0.4731   0.05056   0.04646  -0.0961  0.9707  0.0527  -3.6808   0.0000   0.0000   0.0000   0.0331
  -9.000  -0.4542   0.04774   0.04360  -0.0980  0.9650  0.0533  -3.5735   0.0000   0.0000   0.0000   0.0205
  -8.750  -0.4266   0.04687   0.04277  -0.0993  0.9609  0.0545  -3.3760   0.0000   0.0000   0.0000   0.0032
  -8.500  -0.4501   0.03567   0.03028  -0.1020  0.9491  0.0514  -3.7936   0.0000   0.0000   0.0000   0.0096
  -8.250  -0.4357   0.03251   0.02642  -0.1022  0.9432  0.0522  -3.7769   0.0000   0.0000   0.0000   0.0015
  -8.000  -0.4168   0.02986   0.02362  -0.1023  0.9377  0.0534  -3.6709   0.0000   0.0000   0.0000  -0.0094
  -7.750  -0.3943   0.02847   0.02211  -0.1021  0.9324  0.0545  -3.5368   0.0000   0.0000   0.0000  -0.0232
  -7.500  -0.3709   0.02695   0.02037  -0.1019  0.9277  0.0557  -3.4198   0.0000   0.0000   0.0000  -0.0393
  -7.250  -0.3494   0.02563   0.01877  -0.1013  0.9218  0.0574  -3.3106   0.0000   0.0000   0.0000  -0.0547
  -7.000  -0.3249   0.02440   0.01712  -0.1008  0.9177  0.0596  -3.1998   0.0000   0.0000   0.0000  -0.0754
  -6.750  -0.3026   0.02307   0.01570  -0.1002  0.9117  0.0614  -3.0822   0.0000   0.0000   0.0000  -0.0968
  -6.500  -0.2775   0.02225   0.01482  -0.0998  0.9073  0.0636  -2.9483   0.0000   0.0000   0.0000  -0.1259
  -6.250  -0.2529   0.02148   0.01388  -0.0992  0.9019  0.0664  -2.8271   0.0000   0.0000   0.0000  -0.1593
  -6.000  -0.2283   0.02066   0.01297  -0.0986  0.8970  0.0697  -2.7073   0.0000   0.0000   0.0000  -0.2000
  -5.750  -0.2029   0.02014   0.01241  -0.0981  0.8922  0.0737  -2.5805   0.0000   0.0000   0.0000  -0.2527
  -5.500  -0.1781   0.01947   0.01167  -0.0975  0.8870  0.0778  -2.4675   0.0000   0.0000   0.0000  -0.3184
  -5.250  -0.1523   0.01899   0.01117  -0.0970  0.8827  0.0828  -2.3403   0.0000   0.0000   0.0000  -0.4098
  -5.000  -0.1276   0.01851   0.01070  -0.0965  0.8771  0.0885  -2.2283   0.0000   0.0000   0.0000  -0.5325
  -4.750  -0.1017   0.01801   0.01015  -0.0959  0.8731  0.0954  -2.1155   0.0000   0.0000   0.0000  -0.7240
  -4.500  -0.0767   0.01763   0.00979  -0.0954  0.8671  0.1036  -2.0027   0.0000   0.0000   0.0000  -1.0316
  -4.250  -0.0511   0.01720   0.00941  -0.0949  0.8628  0.1136  -1.8857   0.0000   0.0000   0.0000  -1.6586
  -4.000  -0.0258   0.01687   0.00913  -0.0944  0.8571  0.1260  -1.7745   0.0000   0.0000   0.0000  -3.5142
  -3.750  -0.0003   0.01647   0.00879  -0.0939  0.8521  0.1413  -1.6714   0.0000   0.0000   0.0000  -334.2514
  -3.500   0.0255   0.01610   0.00850  -0.0935  0.8472  0.1602  -1.5655   0.0000   0.0000   0.0000   3.9944
  -3.250   0.0512   0.01582   0.00831  -0.0931  0.8415  0.1829  -1.4604   0.0000   0.0000   0.0000   2.1054
  -3.000   0.0776   0.01545   0.00803  -0.0926  0.8373  0.2107  -1.3538   0.0000   0.0000   0.0000   1.4667
  -2.750   0.1031   0.01518   0.00793  -0.0922  0.8311  0.2457  -1.2500   0.0000   0.0000   0.0000   1.1607
  -2.500   0.1293   0.01479   0.00772  -0.0918  0.8268  0.2918  -1.1461   0.0000   0.0000   0.0000   0.9714
  -2.250   0.1547   0.01445   0.00762  -0.0914  0.8207  0.3519  -1.0518   0.0000   0.0000   0.0000   0.8492
  -2.000   0.1795   0.01405   0.00755  -0.0908  0.8148  0.4313  -0.9596   0.0000   0.0000   0.0000   0.7621
  -1.750   0.2042   0.01357   0.00744  -0.0899  0.8103  0.5336  -0.8686   0.0000   0.0000   0.0000   0.6946
  -1.500   0.2274   0.01329   0.00752  -0.0886  0.8037  0.6338  -0.7820   0.0000   0.0000   0.0000   0.6431
  -1.250   0.2508   0.01307   0.00754  -0.0870  0.7986  0.7157  -0.7084   0.0000   0.0000   0.0000   0.5993
  -1.000   0.2740   0.01292   0.00752  -0.0853  0.7931  0.7771  -0.6417   0.0000   0.0000   0.0000   0.5627
  -0.750   0.2964   0.01284   0.00754  -0.0834  0.7866  0.8258  -0.6410   0.0000   0.0000   0.0000   0.5323
  -0.500   0.3193   0.01268   0.00741  -0.0814  0.7817  0.8700  -0.6607   0.0000   0.0000   0.0000   0.5050
  -0.250   0.3442   0.01259   0.00733  -0.0798  0.7752  0.9115  -0.6814   0.0000   0.0000   0.0000   0.4815
   0.000   0.3792   0.01250   0.00721  -0.0806  0.7688  0.9507  -0.7107   0.0000   0.0000   0.0000   0.4615
   0.250   0.4271   0.01228   0.00689  -0.0840  0.7644  0.9802  -0.7483   0.0000   0.0000   0.0000   0.4451
   0.500   0.4789   0.01216   0.00670  -0.0888  0.7573  1.0000  -0.7889   0.0000   0.0000   0.0000   0.4335
   0.750   0.5009   0.01213   0.00660  -0.0878  0.7499  1.0000  -0.8117   0.0000   0.0000   0.0000   0.4231
   1.000   0.5246   0.01209   0.00648  -0.0870  0.7427  1.0000  -0.8366   0.0000   0.0000   0.0000   0.4133
   1.250   0.5498   0.01202   0.00632  -0.0864  0.7356  1.0000  -0.8636   0.0000   0.0000   0.0000   0.4042
   1.500   0.5764   0.01192   0.00612  -0.0859  0.7287  1.0000  -0.8920   0.0000   0.0000   0.0000   0.3958
   1.750   0.6025   0.01188   0.00602  -0.0854  0.7202  1.0000  -0.9251   0.0000   0.0000   0.0000   0.3882
   2.000   0.6290   0.01184   0.00592  -0.0850  0.7114  1.0000  -0.9594   0.0000   0.0000   0.0000   0.3812
   2.250   0.6559   0.01181   0.00583  -0.0846  0.7024  1.0000  -0.9949   0.0000   0.0000   0.0000   0.3748
   2.500   0.6829   0.01179   0.00576  -0.0842  0.6934  1.0000  -1.0314   0.0000   0.0000   0.0000   0.3689
   2.750   0.7101   0.01180   0.00571  -0.0839  0.6842  1.0000  -1.0690   0.0000   0.0000   0.0000   0.3635
   3.000   0.7373   0.01181   0.00567  -0.0836  0.6746  1.0000  -1.1079   0.0000   0.0000   0.0000   0.3584
   3.250   0.7639   0.01185   0.00569  -0.0832  0.6634  1.0000  -1.1475   0.0000   0.0000   0.0000   0.3537
   3.500   0.7907   0.01189   0.00569  -0.0829  0.6517  1.0000  -1.1921   0.0000   0.0000   0.0000   0.3492
   3.750   0.8177   0.01192   0.00566  -0.0825  0.6398  1.0000  -1.2384   0.0000   0.0000   0.0000   0.3450
   4.000   0.8441   0.01199   0.00570  -0.0821  0.6265  1.0000  -1.2843   0.0000   0.0000   0.0000   0.3411
   4.250   0.8706   0.01208   0.00575  -0.0817  0.6135  1.0000  -1.3347   0.0000   0.0000   0.0000   0.3374
   4.500   0.8969   0.01220   0.00582  -0.0813  0.6002  1.0000  -1.3873   0.0000   0.0000   0.0000   0.3339
   4.750   0.9231   0.01235   0.00593  -0.0809  0.5862  1.0000  -1.4424   0.0000   0.0000   0.0000   0.3306
   5.000   0.9488   0.01252   0.00606  -0.0804  0.5714  1.0000  -1.5022   0.0000   0.0000   0.0000   0.3275
   5.250   0.9745   0.01272   0.00619  -0.0799  0.5565  1.0000  -1.5647   0.0000   0.0000   0.0000   0.3244
   5.500   0.9995   0.01294   0.00638  -0.0794  0.5402  1.0000  -1.6296   0.0000   0.0000   0.0000   0.3215
   5.750   1.0241   0.01319   0.00658  -0.0788  0.5228  1.0000  -1.6961   0.0000   0.0000   0.0000   0.3187
   6.000   1.0482   0.01347   0.00681  -0.0781  0.5053  1.0000  -1.7635   0.0000   0.0000   0.0000   0.3160
   6.250   1.0720   0.01378   0.00707  -0.0774  0.4875  1.0000  -1.8397   0.0000   0.0000   0.0000   0.3134
   6.500   1.0953   0.01412   0.00735  -0.0767  0.4693  1.0000  -1.9207   0.0000   0.0000   0.0000   0.3109
   6.750   1.1179   0.01449   0.00767  -0.0759  0.4505  1.0000  -2.0192   0.0000   0.0000   0.0000   0.3084
   7.000   1.1399   0.01489   0.00802  -0.0750  0.4315  1.0000  -2.1181   0.0000   0.0000   0.0000   0.3059
   7.250   1.1612   0.01533   0.00839  -0.0740  0.4122  1.0000  -2.2168   0.0000   0.0000   0.0000   0.3036
   7.500   1.1816   0.01581   0.00881  -0.0729  0.3928  1.0000  -2.3151   0.0000   0.0000   0.0000   0.3012
   7.750   1.2014   0.01632   0.00927  -0.0718  0.3731  1.0000  -2.4167   0.0000   0.0000   0.0000   0.2989
   8.000   1.2203   0.01686   0.00976  -0.0705  0.3536  1.0000  -2.5278   0.0000   0.0000   0.0000   0.2966
   8.250   1.2383   0.01746   0.01030  -0.0692  0.3348  1.0000  -2.6413   0.0000   0.0000   0.0000   0.2943
   8.500   1.2552   0.01809   0.01088  -0.0677  0.3163  1.0000  -2.7536   0.0000   0.0000   0.0000   0.2920
   8.750   1.2709   0.01877   0.01150  -0.0661  0.2983  1.0000  -2.8642   0.0000   0.0000   0.0000   0.2897
   9.000   1.2852   0.01948   0.01216  -0.0644  0.2812  1.0000  -2.9719   0.0000   0.0000   0.0000   0.2874
   9.250   1.2968   0.02026   0.01287  -0.0622  0.2656  1.0000  -3.0738   0.0000   0.0000   0.0000   0.2849
   9.500   1.3091   0.02108   0.01367  -0.0604  0.2501  1.0000  -3.1782   0.0000   0.0000   0.0000   0.2827
   9.750   1.3208   0.02199   0.01453  -0.0585  0.2359  1.0000  -3.2814   0.0000   0.0000   0.0000   0.2805
  10.000   1.3318   0.02297   0.01548  -0.0567  0.2222  1.0000  -3.3834   0.0000   0.0000   0.0000   0.2784
  10.250   1.3426   0.02400   0.01650  -0.0551  0.2089  1.0000  -3.4854   0.0000   0.0000   0.0000   0.2764
  10.500   1.3528   0.02510   0.01758  -0.0534  0.1960  1.0000  -3.5863   0.0000   0.0000   0.0000   0.2744
  10.750   1.3619   0.02631   0.01875  -0.0518  0.1843  1.0000  -3.6846   0.0000   0.0000   0.0000   0.2725
  11.000   1.3716   0.02753   0.01998  -0.0503  0.1724  1.0000  -3.7845   0.0000   0.0000   0.0000   0.2707
  11.250   1.3800   0.02887   0.02131  -0.0488  0.1618  1.0000  -3.8811   0.0000   0.0000   0.0000   0.2690
  11.500   1.3877   0.03030   0.02275  -0.0473  0.1521  1.0000  -3.9753   0.0000   0.0000   0.0000   0.2673
  11.750   1.3948   0.03181   0.02425  -0.0459  0.1429  1.0000  -4.0678   0.0000   0.0000   0.0000   0.2656
  12.000   1.4016   0.03338   0.02584  -0.0445  0.1343  1.0000  -4.1588   0.0000   0.0000   0.0000   0.2640
  12.250   1.4079   0.03504   0.02751  -0.0432  0.1260  1.0000  -4.2479   0.0000   0.0000   0.0000   0.2625
  12.500   1.4134   0.03678   0.02928  -0.0419  0.1183  1.0000  -4.3341   0.0000   0.0000   0.0000   0.2610
  12.750   1.4180   0.03865   0.03117  -0.0407  0.1111  1.0000  -4.4177   0.0000   0.0000   0.0000   0.2595
  13.000   1.4214   0.04066   0.03320  -0.0395  0.1046  1.0000  -4.5013   0.0000   0.0000   0.0000   0.2582
  13.250   1.4231   0.04284   0.03534  -0.0383  0.0989  1.0000  -4.5800   0.0000   0.0000   0.0000   0.2568
  13.500   1.4271   0.04491   0.03752  -0.0374  0.0928  1.0000  -4.6627   0.0000   0.0000   0.0000   0.2556
  13.750   1.4290   0.04720   0.03983  -0.0364  0.0879  1.0000  -4.7371   0.0000   0.0000   0.0000   0.2543
  14.000   1.4305   0.04957   0.04221  -0.0355  0.0835  1.0000  -4.8117   0.0000   0.0000   0.0000   0.2532
  14.250   1.4329   0.05194   0.04467  -0.0347  0.0793  1.0000  -4.8836   0.0000   0.0000   0.0000   0.2521
  14.500   1.4345   0.05443   0.04716  -0.0341  0.0757  1.0000  -4.9568   0.0000   0.0000   0.0000   0.2511
  14.750   1.4365   0.05693   0.04976  -0.0334  0.0723  1.0000  -5.0252   0.0000   0.0000   0.0000   0.2501
  15.000   1.4386   0.05949   0.05238  -0.0330  0.0692  1.0000  -5.1052   0.0000   0.0000   0.0000   0.2492
  15.250   1.4411   0.06192   0.05476  -0.0323  0.0665  1.0000  -5.1908   0.0000   0.0000   0.0000   0.2482
  15.500   1.4426   0.06471   0.05773  -0.0321  0.0639  1.0000  -5.2644   0.0000   0.0000   0.0000   0.2475
  15.750   1.4449   0.06735   0.06043  -0.0319  0.0616  1.0000  -5.3470   0.0000   0.0000   0.0000   0.2468
  16.000   1.4510   0.06930   0.06226  -0.0310  0.0594  1.0000  -5.4496   0.0000   0.0000   0.0000   0.2456
  16.250   1.4508   0.07243   0.06562  -0.0310  0.0578  1.0000  -5.5107   0.0000   0.0000   0.0000   0.2451
  16.500   1.4524   0.07530   0.06863  -0.0310  0.0560  1.0000  -5.5827   0.0000   0.0000   0.0000   0.2445
  16.750   1.4552   0.07796   0.07136  -0.0309  0.0545  1.0000  -5.6642   0.0000   0.0000   0.0000   0.2438
  17.000   1.4619   0.07999   0.07336  -0.0305  0.0530  1.0000  -5.7677   0.0000   0.0000   0.0000   0.2429
  17.250   1.4674   0.08222   0.07564  -0.0298  0.0517  1.0000  -5.8549   0.0000   0.0000   0.0000   0.2419
  17.500   1.4644   0.08589   0.07953  -0.0305  0.0507  1.0000  -5.9200   0.0000   0.0000   0.0000   0.2417
  17.750   1.4616   0.08956   0.08339  -0.0312  0.0497  1.0000  -6.0000   0.0000   0.0000   0.0000   0.2417
  18.000   1.4599   0.09309   0.08706  -0.0319  0.0486  1.0000  -6.0878   0.0000   0.0000   0.0000   0.2416
  18.250   1.4596   0.09641   0.09048  -0.0327  0.0477  1.0000  -6.1861   0.0000   0.0000   0.0000   0.2415
  18.500   1.4624   0.09919   0.09333  -0.0332  0.0467  1.0000  -6.3077   0.0000   0.0000   0.0000   0.2412
  18.750   1.4717   0.10083   0.09494  -0.0326  0.0457  1.0000  -6.4733   0.0000   0.0000   0.0000   0.2402
  19.000   1.4688   0.10458   0.09884  -0.0335  0.0451  1.0000  -6.5432   0.0000   0.0000   0.0000   0.2402
  19.250   1.4572   0.10994   0.10445  -0.0360  0.0447  1.0000  -6.5492   0.0000   0.0000   0.0000   0.2415
  19.500   1.4445   0.11567   0.11042  -0.0389  0.0443  1.0000  -6.5397   0.0000   0.0000   0.0000   0.2431
  19.750   1.4300   0.12189   0.11688  -0.0424  0.0440  1.0000  -6.5104   0.0000   0.0000   0.0000   0.2452
  20.000   1.4133   0.12871   0.12394  -0.0466  0.0437  1.0000  -6.4542   0.0000   0.0000   0.0000   0.2478


