xflr5 v6.61

 Calculated polar for: QX0126

 1 1 Reynolds number fixed          Mach number fixed         

 xtrf =   1.000 (top)        1.000 (bottom)
 Mach =   0.000     Re =     0.620 e 6     Ncrit =   9.000

  alpha     CL        CD       CDp       Cm    Top Xtr Bot Xtr   Cpmin    Chinge    XCp    
 ------- -------- --------- --------- -------- ------- ------- -------- --------- ---------
 -10.000  -0.6999   0.02105   0.01577  -0.0826  0.8727  0.0253  -6.1397   0.0000   0.0000   0.0000   0.1187
  -9.750  -0.6753   0.02037   0.01499  -0.0825  0.8683  0.0260  -5.9204   0.0000   0.0000   0.0000   0.1147
  -9.500  -0.6507   0.01972   0.01420  -0.0823  0.8648  0.0266  -5.7077   0.0000   0.0000   0.0000   0.1106
  -9.250  -0.6252   0.01914   0.01350  -0.0822  0.8611  0.0271  -5.4935   0.0000   0.0000   0.0000   0.1057
  -9.000  -0.6021   0.01791   0.01214  -0.0820  0.8574  0.0278  -5.3117   0.0000   0.0000   0.0000   0.1012
  -8.750  -0.5774   0.01717   0.01135  -0.0818  0.8544  0.0286  -5.1021   0.0000   0.0000   0.0000   0.0957
  -8.500  -0.5509   0.01672   0.01087  -0.0818  0.8505  0.0294  -4.8799   0.0000   0.0000   0.0000   0.0889
  -8.250  -0.5245   0.01627   0.01035  -0.0817  0.8471  0.0302  -4.6659   0.0000   0.0000   0.0000   0.0817
  -8.000  -0.4979   0.01578   0.00978  -0.0816  0.8435  0.0311  -4.4688   0.0000   0.0000   0.0000   0.0736
  -7.750  -0.4711   0.01532   0.00924  -0.0815  0.8397  0.0319  -4.2762   0.0000   0.0000   0.0000   0.0644
  -7.500  -0.4441   0.01496   0.00877  -0.0813  0.8367  0.0325  -4.0839   0.0000   0.0000   0.0000   0.0542
  -7.250  -0.4187   0.01407   0.00787  -0.0812  0.8327  0.0340  -3.9096   0.0000   0.0000   0.0000   0.0431
  -7.000  -0.3916   0.01369   0.00746  -0.0812  0.8292  0.0353  -3.7183   0.0000   0.0000   0.0000   0.0297
  -6.750  -0.3642   0.01332   0.00704  -0.0811  0.8256  0.0366  -3.5433   0.0000   0.0000   0.0000   0.0140
  -6.500  -0.3364   0.01299   0.00665  -0.0811  0.8218  0.0380  -3.3708   0.0000   0.0000   0.0000  -0.0047
  -6.250  -0.3097   0.01243   0.00604  -0.0810  0.8188  0.0399  -3.2125   0.0000   0.0000   0.0000  -0.0253
  -6.000  -0.2818   0.01210   0.00572  -0.0811  0.8148  0.0422  -3.0510   0.0000   0.0000   0.0000  -0.0520
  -5.750  -0.2537   0.01186   0.00542  -0.0810  0.8113  0.0446  -2.8934   0.0000   0.0000   0.0000  -0.0845
  -5.500  -0.2262   0.01144   0.00499  -0.0810  0.8076  0.0478  -2.7436   0.0000   0.0000   0.0000  -0.1242
  -5.250  -0.1979   0.01121   0.00473  -0.0811  0.8035  0.0511  -2.5919   0.0000   0.0000   0.0000  -0.1767
  -5.000  -0.1699   0.01090   0.00440  -0.0811  0.8002  0.0547  -2.4530   0.0000   0.0000   0.0000  -0.2456
  -4.750  -0.1414   0.01068   0.00418  -0.0812  0.7960  0.0588  -2.3108   0.0000   0.0000   0.0000  -0.3448
  -4.500  -0.1132   0.01041   0.00391  -0.0812  0.7925  0.0639  -2.1732   0.0000   0.0000   0.0000  -0.4912
  -4.250  -0.0847   0.01019   0.00369  -0.0813  0.7882  0.0700  -2.0367   0.0000   0.0000   0.0000  -0.7393
  -4.000  -0.0562   0.00997   0.00349  -0.0813  0.7843  0.0781  -1.9020   0.0000   0.0000   0.0000  -1.2379
  -3.750  -0.0277   0.00976   0.00332  -0.0814  0.7803  0.0886  -1.7780   0.0000   0.0000   0.0000  -2.7682
  -3.500   0.0009   0.00956   0.00314  -0.0815  0.7759  0.1008  -1.6557   0.0000   0.0000   0.0000  97.5215
  -3.250   0.0294   0.00935   0.00299  -0.0816  0.7716  0.1155  -1.5351   0.0000   0.0000   0.0000   3.0902
  -3.000   0.0580   0.00917   0.00285  -0.0817  0.7668  0.1324  -1.4164   0.0000   0.0000   0.0000   1.6865
  -2.750   0.0866   0.00898   0.00271  -0.0818  0.7624  0.1505  -1.3004   0.0000   0.0000   0.0000   1.2114
  -2.500   0.1152   0.00879   0.00260  -0.0819  0.7577  0.1750  -1.1867   0.0000   0.0000   0.0000   0.9720
  -2.000   0.1724   0.00841   0.00240  -0.0822  0.7481  0.2329  -0.9757   0.0000   0.0000   0.0000   0.7318
  -1.750   0.2011   0.00823   0.00231  -0.0823  0.7425  0.2667  -0.8767   0.0000   0.0000   0.0000   0.6630
  -1.250   0.2580   0.00781   0.00217  -0.0826  0.7315  0.3595  -0.7026   0.0000   0.0000   0.0000   0.5715
  -1.000   0.2861   0.00753   0.00211  -0.0827  0.7259  0.4304  -0.6413   0.0000   0.0000   0.0000   0.5396
  -0.750   0.3138   0.00722   0.00208  -0.0827  0.7202  0.5227  -0.6612   0.0000   0.0000   0.0000   0.5135
  -0.500   0.3416   0.00698   0.00208  -0.0826  0.7136  0.5996  -0.6817   0.0000   0.0000   0.0000   0.4914
  -0.250   0.3691   0.00680   0.00210  -0.0824  0.7073  0.6699  -0.7037   0.0000   0.0000   0.0000   0.4723
   0.000   0.3967   0.00669   0.00210  -0.0822  0.7005  0.7221  -0.7292   0.0000   0.0000   0.0000   0.4557
   0.250   0.4243   0.00661   0.00210  -0.0819  0.6929  0.7621  -0.7549   0.0000   0.0000   0.0000   0.4412
   0.500   0.4517   0.00655   0.00212  -0.0816  0.6845  0.7965  -0.7812   0.0000   0.0000   0.0000   0.4284
   0.750   0.4786   0.00650   0.00213  -0.0811  0.6756  0.8307  -0.8074   0.0000   0.0000   0.0000   0.4169
   1.000   0.5045   0.00645   0.00216  -0.0804  0.6667  0.8663  -0.8332   0.0000   0.0000   0.0000   0.4064
   1.250   0.5299   0.00643   0.00219  -0.0796  0.6582  0.8997  -0.8604   0.0000   0.0000   0.0000   0.3969
   1.500   0.5552   0.00641   0.00221  -0.0786  0.6494  0.9338  -0.8877   0.0000   0.0000   0.0000   0.3881
   1.750   0.5868   0.00643   0.00221  -0.0792  0.6397  0.9657  -0.9226   0.0000   0.0000   0.0000   0.3810
   2.000   0.6260   0.00647   0.00221  -0.0815  0.6285  0.9906  -0.9663   0.0000   0.0000   0.0000   0.3761
   2.250   0.6594   0.00655   0.00222  -0.0827  0.6161  1.0000  -1.0065   0.0000   0.0000   0.0000   0.3710
   2.500   0.6864   0.00666   0.00226  -0.0826  0.6033  1.0000  -1.0434   0.0000   0.0000   0.0000   0.3656
   2.750   0.7137   0.00678   0.00232  -0.0824  0.5898  1.0000  -1.0811   0.0000   0.0000   0.0000   0.3606
   3.000   0.7410   0.00691   0.00239  -0.0823  0.5768  1.0000  -1.1201   0.0000   0.0000   0.0000   0.3559
   3.250   0.7683   0.00705   0.00247  -0.0823  0.5638  1.0000  -1.1610   0.0000   0.0000   0.0000   0.3516
   3.500   0.7955   0.00721   0.00256  -0.0822  0.5502  1.0000  -1.2069   0.0000   0.0000   0.0000   0.3475
   3.750   0.8226   0.00738   0.00267  -0.0820  0.5364  1.0000  -1.2532   0.0000   0.0000   0.0000   0.3437
   4.000   0.8496   0.00756   0.00279  -0.0819  0.5219  1.0000  -1.2997   0.0000   0.0000   0.0000   0.3401
   4.250   0.8764   0.00776   0.00292  -0.0818  0.5061  1.0000  -1.3502   0.0000   0.0000   0.0000   0.3367
   4.500   0.9029   0.00797   0.00307  -0.0816  0.4896  1.0000  -1.4036   0.0000   0.0000   0.0000   0.3335
   4.750   0.9293   0.00820   0.00323  -0.0814  0.4736  1.0000  -1.4596   0.0000   0.0000   0.0000   0.3305
   5.000   0.9556   0.00844   0.00340  -0.0812  0.4576  1.0000  -1.5221   0.0000   0.0000   0.0000   0.3275
   5.250   0.9816   0.00869   0.00359  -0.0810  0.4403  1.0000  -1.5866   0.0000   0.0000   0.0000   0.3248
   5.500   1.0074   0.00896   0.00379  -0.0807  0.4227  1.0000  -1.6542   0.0000   0.0000   0.0000   0.3221
   5.750   1.0329   0.00925   0.00400  -0.0804  0.4050  1.0000  -1.7222   0.0000   0.0000   0.0000   0.3195
   6.000   1.0580   0.00956   0.00424  -0.0801  0.3866  1.0000  -1.7924   0.0000   0.0000   0.0000   0.3171
   6.250   1.0827   0.00989   0.00449  -0.0797  0.3676  1.0000  -1.8707   0.0000   0.0000   0.0000   0.3147
   6.500   1.1072   0.01024   0.00476  -0.0792  0.3490  1.0000  -1.9707   0.0000   0.0000   0.0000   0.3123
   6.750   1.1314   0.01060   0.00505  -0.0788  0.3307  1.0000  -2.0734   0.0000   0.0000   0.0000   0.3101
   7.000   1.1548   0.01101   0.00536  -0.0782  0.3113  1.0000  -2.1762   0.0000   0.0000   0.0000   0.3079
   7.250   1.1780   0.01143   0.00569  -0.0777  0.2923  1.0000  -2.2800   0.0000   0.0000   0.0000   0.3057
   7.750   1.2234   0.01229   0.00640  -0.0764  0.2578  1.0000  -2.5116   0.0000   0.0000   0.0000   0.3015
   8.000   1.2452   0.01277   0.00680  -0.0756  0.2403  1.0000  -2.6361   0.0000   0.0000   0.0000   0.2995
   8.250   1.2663   0.01326   0.00722  -0.0748  0.2233  1.0000  -2.7609   0.0000   0.0000   0.0000   0.2975
   8.500   1.2868   0.01378   0.00766  -0.0739  0.2066  1.0000  -2.8861   0.0000   0.0000   0.0000   0.2955
   8.750   1.3066   0.01431   0.00811  -0.0729  0.1911  1.0000  -3.0113   0.0000   0.0000   0.0000   0.2935
   9.000   1.3258   0.01486   0.00860  -0.0718  0.1775  1.0000  -3.1364   0.0000   0.0000   0.0000   0.2915
   9.250   1.3432   0.01540   0.00910  -0.0704  0.1659  1.0000  -3.2583   0.0000   0.0000   0.0000   0.2893
   9.500   1.3601   0.01598   0.00963  -0.0690  0.1553  1.0000  -3.3801   0.0000   0.0000   0.0000   0.2873
   9.750   1.3766   0.01660   0.01023  -0.0676  0.1455  1.0000  -3.5022   0.0000   0.0000   0.0000   0.2853
  10.000   1.3927   0.01726   0.01087  -0.0662  0.1358  1.0000  -3.6244   0.0000   0.0000   0.0000   0.2833
  10.250   1.4084   0.01797   0.01155  -0.0649  0.1264  1.0000  -3.7464   0.0000   0.0000   0.0000   0.2815
  10.500   1.4234   0.01875   0.01230  -0.0636  0.1173  1.0000  -3.8677   0.0000   0.0000   0.0000   0.2796
  10.750   1.4378   0.01958   0.01310  -0.0623  0.1087  1.0000  -3.9883   0.0000   0.0000   0.0000   0.2778
  11.000   1.4517   0.02046   0.01397  -0.0609  0.1006  1.0000  -4.1081   0.0000   0.0000   0.0000   0.2761
  11.250   1.4651   0.02139   0.01489  -0.0596  0.0933  1.0000  -4.2274   0.0000   0.0000   0.0000   0.2744
  11.500   1.4782   0.02236   0.01585  -0.0584  0.0867  1.0000  -4.3467   0.0000   0.0000   0.0000   0.2727
  11.750   1.4904   0.02341   0.01690  -0.0571  0.0804  1.0000  -4.4638   0.0000   0.0000   0.0000   0.2711
  12.000   1.5011   0.02459   0.01807  -0.0557  0.0746  1.0000  -4.5765   0.0000   0.0000   0.0000   0.2694
  12.250   1.5131   0.02569   0.01918  -0.0545  0.0693  1.0000  -4.6942   0.0000   0.0000   0.0000   0.2679
  12.500   1.5236   0.02692   0.02043  -0.0532  0.0644  1.0000  -4.8128   0.0000   0.0000   0.0000   0.2663
  13.000   1.5419   0.02964   0.02319  -0.0507  0.0557  1.0000  -5.0431   0.0000   0.0000   0.0000   0.2633
  13.250   1.5479   0.03130   0.02485  -0.0493  0.0519  1.0000  -5.1468   0.0000   0.0000   0.0000   0.2618
  13.500   1.5570   0.03273   0.02635  -0.0482  0.0488  1.0000  -5.2620   0.0000   0.0000   0.0000   0.2604
  13.750   1.5611   0.03461   0.02823  -0.0470  0.0458  1.0000  -5.3590   0.0000   0.0000   0.0000   0.2590
  14.000   1.5681   0.03628   0.02998  -0.0459  0.0436  1.0000  -5.4656   0.0000   0.0000   0.0000   0.2577
  14.250   1.5733   0.03815   0.03189  -0.0449  0.0414  1.0000  -5.5758   0.0000   0.0000   0.0000   0.2564
  14.500   1.5741   0.04047   0.03424  -0.0438  0.0394  1.0000  -5.6687   0.0000   0.0000   0.0000   0.2552
  14.750   1.5775   0.04262   0.03647  -0.0429  0.0380  1.0000  -5.7715   0.0000   0.0000   0.0000   0.2541
  15.000   1.5819   0.04475   0.03869  -0.0422  0.0366  1.0000  -5.8796   0.0000   0.0000   0.0000   0.2530
  15.250   1.5840   0.04718   0.04118  -0.0416  0.0354  1.0000  -5.9880   0.0000   0.0000   0.0000   0.2520
  15.500   1.5831   0.05001   0.04406  -0.0410  0.0342  1.0000  -6.1081   0.0000   0.0000   0.0000   0.2511
  15.750   1.5761   0.05363   0.04775  -0.0406  0.0330  1.0000  -6.1898   0.0000   0.0000   0.0000   0.2504
  16.000   1.5785   0.05625   0.05048  -0.0404  0.0323  1.0000  -6.3288   0.0000   0.0000   0.0000   0.2496
  16.250   1.5797   0.05909   0.05342  -0.0403  0.0316  1.0000  -6.4605   0.0000   0.0000   0.0000   0.2490
  16.500   1.5790   0.06220   0.05662  -0.0403  0.0309  1.0000  -6.5814   0.0000   0.0000   0.0000   0.2484
  16.750   1.5771   0.06552   0.06003  -0.0405  0.0302  1.0000  -6.6952   0.0000   0.0000   0.0000   0.2480
  17.000   1.5736   0.06912   0.06372  -0.0408  0.0296  1.0000  -6.7983   0.0000   0.0000   0.0000   0.2476
  17.250   1.5680   0.07307   0.06776  -0.0412  0.0291  1.0000  -6.8866   0.0000   0.0000   0.0000   0.2474
  17.500   1.5598   0.07743   0.07221  -0.0419  0.0285  1.0000  -6.9566   0.0000   0.0000   0.0000   0.2474
  17.750   1.5486   0.08228   0.07714  -0.0428  0.0280  1.0000  -7.0025   0.0000   0.0000   0.0000   0.2475
  18.000   1.5355   0.08744   0.08239  -0.0438  0.0275  1.0000  -7.0324   0.0000   0.0000   0.0000   0.2478
  18.250   1.5326   0.09128   0.08634  -0.0448  0.0272  1.0000  -7.1327   0.0000   0.0000   0.0000   0.2479
  18.500   1.5285   0.09533   0.09050  -0.0458  0.0269  1.0000  -7.2227   0.0000   0.0000   0.0000   0.2480
  18.750   1.5237   0.09952   0.09480  -0.0470  0.0265  1.0000  -7.3062   0.0000   0.0000   0.0000   0.2483
  19.000   1.5183   0.10382   0.09920  -0.0483  0.0262  1.0000  -7.3836   0.0000   0.0000   0.0000   0.2486
  19.250   1.5129   0.10817   0.10364  -0.0498  0.0258  1.0000  -7.4589   0.0000   0.0000   0.0000   0.2491
  19.500   1.5077   0.11253   0.10809  -0.0514  0.0255  1.0000  -7.5334   0.0000   0.0000   0.0000   0.2497
  19.750   1.5027   0.11688   0.11252  -0.0532  0.0251  1.0000  -7.6073   0.0000   0.0000   0.0000   0.2503
  20.000   1.4979   0.12124   0.11696  -0.0550  0.0248  1.0000  -7.6802   0.0000   0.0000   0.0000   0.2510


