xflr5 v6.61

 Calculated polar for: QX0126

 1 1 Reynolds number fixed          Mach number fixed         

 xtrf =   1.000 (top)        1.000 (bottom)
 Mach =   0.000     Re =     0.340 e 6     Ncrit =   9.000

  alpha     CL        CD       CDp       Cm    Top Xtr Bot Xtr   Cpmin    Chinge    XCp    
 ------- -------- --------- --------- -------- ------- ------- -------- --------- ---------
 -10.000  -0.6274   0.03224   0.02743  -0.0927  0.9240  0.0330  -5.3629   0.0000   0.0000   0.0000   0.0885
  -9.750  -0.6117   0.03054   0.02560  -0.0922  0.9185  0.0336  -5.2109   0.0000   0.0000   0.0000   0.0858
  -9.500  -0.5930   0.02916   0.02407  -0.0919  0.9130  0.0343  -5.0524   0.0000   0.0000   0.0000   0.0817
  -9.250  -0.5738   0.02797   0.02273  -0.0913  0.9084  0.0350  -4.8937   0.0000   0.0000   0.0000   0.0777
  -9.000  -0.5532   0.02664   0.02119  -0.0910  0.9031  0.0360  -4.7420   0.0000   0.0000   0.0000   0.0723
  -8.750  -0.5331   0.02523   0.01950  -0.0904  0.8989  0.0370  -4.6047   0.0000   0.0000   0.0000   0.0673
  -8.500  -0.5108   0.02395   0.01792  -0.0901  0.8940  0.0379  -4.4612   0.0000   0.0000   0.0000   0.0606
  -8.250  -0.4887   0.02273   0.01641  -0.0895  0.8903  0.0386  -4.3153   0.0000   0.0000   0.0000   0.0538
  -8.000  -0.4658   0.02112   0.01475  -0.0893  0.8855  0.0397  -4.1596   0.0000   0.0000   0.0000   0.0450
  -7.750  -0.4415   0.02046   0.01402  -0.0889  0.8819  0.0410  -3.9840   0.0000   0.0000   0.0000   0.0354
  -7.500  -0.4159   0.01977   0.01324  -0.0887  0.8771  0.0424  -3.8156   0.0000   0.0000   0.0000   0.0233
  -7.250  -0.3909   0.01903   0.01234  -0.0882  0.8734  0.0437  -3.6589   0.0000   0.0000   0.0000   0.0108
  -7.000  -0.3646   0.01842   0.01157  -0.0880  0.8688  0.0449  -3.4994   0.0000   0.0000   0.0000  -0.0052
  -6.750  -0.3403   0.01735   0.01047  -0.0876  0.8650  0.0467  -3.3555   0.0000   0.0000   0.0000  -0.0215
  -6.500  -0.3140   0.01688   0.01000  -0.0874  0.8607  0.0488  -3.1942   0.0000   0.0000   0.0000  -0.0429
  -6.250  -0.2875   0.01642   0.00943  -0.0871  0.8566  0.0511  -3.0432   0.0000   0.0000   0.0000  -0.0679
  -6.000  -0.2618   0.01571   0.00868  -0.0868  0.8526  0.0536  -2.9094   0.0000   0.0000   0.0000  -0.0971
  -5.750  -0.2353   0.01525   0.00823  -0.0866  0.8483  0.0565  -2.7664   0.0000   0.0000   0.0000  -0.1344
  -5.500  -0.2082   0.01495   0.00781  -0.0863  0.8448  0.0600  -2.6273   0.0000   0.0000   0.0000  -0.1820
  -5.250  -0.1818   0.01440   0.00733  -0.0862  0.8402  0.0644  -2.4885   0.0000   0.0000   0.0000  -0.2428
  -5.000  -0.1550   0.01403   0.00689  -0.0858  0.8368  0.0690  -2.3628   0.0000   0.0000   0.0000  -0.3245
  -4.750  -0.1278   0.01370   0.00659  -0.0858  0.8316  0.0743  -2.2322   0.0000   0.0000   0.0000  -0.4453
  -4.500  -0.1008   0.01335   0.00623  -0.0855  0.8281  0.0803  -2.1046   0.0000   0.0000   0.0000  -0.6270
  -4.250  -0.0732   0.01306   0.00596  -0.0855  0.8231  0.0882  -1.9767   0.0000   0.0000   0.0000  -0.9542
  -4.000  -0.0459   0.01274   0.00564  -0.0853  0.8194  0.0985  -1.8514   0.0000   0.0000   0.0000  -1.6636
  -3.750  -0.0183   0.01246   0.00541  -0.0853  0.8145  0.1121  -1.7352   0.0000   0.0000   0.0000  -4.5442
  -3.500   0.0094   0.01219   0.00517  -0.0852  0.8106  0.1282  -1.6190   0.0000   0.0000   0.0000   9.5784
  -3.250   0.0370   0.01191   0.00497  -0.0852  0.8057  0.1460  -1.5048   0.0000   0.0000   0.0000   2.6030
  -3.000   0.0647   0.01163   0.00476  -0.0851  0.8016  0.1677  -1.3912   0.0000   0.0000   0.0000   1.5913
  -2.750   0.0925   0.01139   0.00462  -0.0850  0.7964  0.1949  -1.2794   0.0000   0.0000   0.0000   1.1865
  -2.500   0.1202   0.01111   0.00443  -0.0849  0.7923  0.2271  -1.1693   0.0000   0.0000   0.0000   0.9679
  -2.250   0.1479   0.01087   0.00432  -0.0850  0.7866  0.2656  -1.0660   0.0000   0.0000   0.0000   0.8323
  -1.750   0.2031   0.01027   0.00409  -0.0849  0.7768  0.3748  -0.8713   0.0000   0.0000   0.0000   0.6721
  -1.500   0.2301   0.00990   0.00399  -0.0847  0.7722  0.4565  -0.7779   0.0000   0.0000   0.0000   0.6211
  -1.250   0.2566   0.00954   0.00395  -0.0844  0.7666  0.5531  -0.7021   0.0000   0.0000   0.0000   0.5808
  -1.000   0.2828   0.00925   0.00394  -0.0839  0.7608  0.6383  -0.6362   0.0000   0.0000   0.0000   0.5476
  -0.750   0.3089   0.00903   0.00390  -0.0831  0.7559  0.7089  -0.6554   0.0000   0.0000   0.0000   0.5194
  -0.500   0.3349   0.00889   0.00391  -0.0824  0.7493  0.7617  -0.6755   0.0000   0.0000   0.0000   0.4957
  -0.250   0.3607   0.00878   0.00389  -0.0815  0.7432  0.8040  -0.6967   0.0000   0.0000   0.0000   0.4752
   0.000   0.3862   0.00867   0.00382  -0.0805  0.7378  0.8424  -0.7208   0.0000   0.0000   0.0000   0.4571
   0.250   0.4106   0.00859   0.00382  -0.0793  0.7308  0.8789  -0.7445   0.0000   0.0000   0.0000   0.4413
   0.500   0.4353   0.00852   0.00378  -0.0780  0.7240  0.9156  -0.7691   0.0000   0.0000   0.0000   0.4271
   0.750   0.4660   0.00845   0.00370  -0.0781  0.7170  0.9496  -0.7976   0.0000   0.0000   0.0000   0.4150
   1.000   0.5062   0.00839   0.00359  -0.0803  0.7093  0.9779  -0.8321   0.0000   0.0000   0.0000   0.4059
   1.250   0.5512   0.00834   0.00348  -0.0838  0.7007  0.9979  -0.8715   0.0000   0.0000   0.0000   0.3989
   1.500   0.5791   0.00834   0.00341  -0.0839  0.6916  1.0000  -0.9003   0.0000   0.0000   0.0000   0.3914
   1.750   0.6051   0.00838   0.00338  -0.0835  0.6826  1.0000  -0.9332   0.0000   0.0000   0.0000   0.3843
   2.000   0.6318   0.00843   0.00337  -0.0833  0.6737  1.0000  -0.9678   0.0000   0.0000   0.0000   0.3778
   2.250   0.6588   0.00849   0.00338  -0.0831  0.6642  1.0000  -1.0033   0.0000   0.0000   0.0000   0.3718
   2.500   0.6858   0.00856   0.00340  -0.0829  0.6537  1.0000  -1.0400   0.0000   0.0000   0.0000   0.3663
   2.750   0.7129   0.00863   0.00343  -0.0827  0.6425  1.0000  -1.0776   0.0000   0.0000   0.0000   0.3611
   3.000   0.7400   0.00872   0.00345  -0.0825  0.6308  1.0000  -1.1164   0.0000   0.0000   0.0000   0.3563
   3.250   0.7669   0.00882   0.00350  -0.0822  0.6177  1.0000  -1.1565   0.0000   0.0000   0.0000   0.3518
   3.500   0.7938   0.00894   0.00357  -0.0820  0.6045  1.0000  -1.2020   0.0000   0.0000   0.0000   0.3476
   3.750   0.8207   0.00908   0.00365  -0.0818  0.5918  1.0000  -1.2479   0.0000   0.0000   0.0000   0.3437
   4.000   0.8474   0.00923   0.00376  -0.0816  0.5783  1.0000  -1.2941   0.0000   0.0000   0.0000   0.3400
   4.250   0.8739   0.00941   0.00387  -0.0813  0.5644  1.0000  -1.3445   0.0000   0.0000   0.0000   0.3365
   4.500   0.9002   0.00960   0.00401  -0.0810  0.5499  1.0000  -1.3973   0.0000   0.0000   0.0000   0.3332
   4.750   0.9263   0.00981   0.00417  -0.0807  0.5348  1.0000  -1.4528   0.0000   0.0000   0.0000   0.3301
   5.000   0.9519   0.01004   0.00434  -0.0804  0.5186  1.0000  -1.5135   0.0000   0.0000   0.0000   0.3270
   5.250   0.9772   0.01030   0.00453  -0.0799  0.5020  1.0000  -1.5756   0.0000   0.0000   0.0000   0.3241
   5.500   1.0024   0.01056   0.00474  -0.0795  0.4853  1.0000  -1.6422   0.0000   0.0000   0.0000   0.3214
   5.750   1.0273   0.01084   0.00496  -0.0791  0.4683  1.0000  -1.7092   0.0000   0.0000   0.0000   0.3187
   6.000   1.0518   0.01115   0.00522  -0.0786  0.4503  1.0000  -1.7777   0.0000   0.0000   0.0000   0.3161
   6.250   1.0758   0.01148   0.00548  -0.0780  0.4322  1.0000  -1.8545   0.0000   0.0000   0.0000   0.3136
   6.500   1.0994   0.01183   0.00578  -0.0774  0.4137  1.0000  -1.9435   0.0000   0.0000   0.0000   0.3112
   6.750   1.1224   0.01222   0.00610  -0.0768  0.3947  1.0000  -2.0434   0.0000   0.0000   0.0000   0.3089
   7.000   1.1448   0.01264   0.00644  -0.0760  0.3756  1.0000  -2.1435   0.0000   0.0000   0.0000   0.3065
   7.250   1.1668   0.01308   0.00682  -0.0752  0.3566  1.0000  -2.2442   0.0000   0.0000   0.0000   0.3043
   7.500   1.1881   0.01355   0.00721  -0.0744  0.3378  1.0000  -2.3450   0.0000   0.0000   0.0000   0.3021
   7.750   1.2088   0.01405   0.00764  -0.0734  0.3185  1.0000  -2.4562   0.0000   0.0000   0.0000   0.2999
   8.000   1.2288   0.01457   0.00810  -0.0724  0.2997  1.0000  -2.5747   0.0000   0.0000   0.0000   0.2977
   8.250   1.2481   0.01513   0.00859  -0.0713  0.2816  1.0000  -2.6929   0.0000   0.0000   0.0000   0.2955
   8.500   1.2662   0.01573   0.00912  -0.0701  0.2646  1.0000  -2.8101   0.0000   0.0000   0.0000   0.2934
   8.750   1.2836   0.01634   0.00967  -0.0687  0.2485  1.0000  -2.9266   0.0000   0.0000   0.0000   0.2912
   9.000   1.2989   0.01697   0.01026  -0.0670  0.2331  1.0000  -3.0392   0.0000   0.0000   0.0000   0.2889
   9.250   1.3135   0.01768   0.01091  -0.0654  0.2185  1.0000  -3.1508   0.0000   0.0000   0.0000   0.2867
   9.500   1.3279   0.01843   0.01162  -0.0638  0.2039  1.0000  -3.2632   0.0000   0.0000   0.0000   0.2846
   9.750   1.3424   0.01922   0.01236  -0.0624  0.1903  1.0000  -3.3768   0.0000   0.0000   0.0000   0.2826
  10.000   1.3559   0.02009   0.01320  -0.0609  0.1777  1.0000  -3.4886   0.0000   0.0000   0.0000   0.2807
  10.250   1.3690   0.02101   0.01409  -0.0595  0.1664  1.0000  -3.6000   0.0000   0.0000   0.0000   0.2788
  10.500   1.3822   0.02196   0.01502  -0.0581  0.1554  1.0000  -3.7124   0.0000   0.0000   0.0000   0.2769
  10.750   1.3945   0.02298   0.01603  -0.0567  0.1452  1.0000  -3.8232   0.0000   0.0000   0.0000   0.2752
  11.000   1.4064   0.02406   0.01709  -0.0554  0.1354  1.0000  -3.9334   0.0000   0.0000   0.0000   0.2734
  11.250   1.4178   0.02519   0.01822  -0.0540  0.1263  1.0000  -4.0426   0.0000   0.0000   0.0000   0.2717
  11.500   1.4285   0.02639   0.01942  -0.0527  0.1179  1.0000  -4.1502   0.0000   0.0000   0.0000   0.2701
  11.750   1.4385   0.02767   0.02071  -0.0514  0.1099  1.0000  -4.2558   0.0000   0.0000   0.0000   0.2685
  12.000   1.4476   0.02904   0.02208  -0.0501  0.1025  1.0000  -4.3590   0.0000   0.0000   0.0000   0.2669
  12.250   1.4556   0.03052   0.02357  -0.0488  0.0958  1.0000  -4.4584   0.0000   0.0000   0.0000   0.2653
  12.500   1.4617   0.03219   0.02524  -0.0474  0.0898  1.0000  -4.5518   0.0000   0.0000   0.0000   0.2638
  12.750   1.4686   0.03382   0.02690  -0.0462  0.0837  1.0000  -4.6533   0.0000   0.0000   0.0000   0.2623
  13.000   1.4752   0.03552   0.02864  -0.0451  0.0782  1.0000  -4.7530   0.0000   0.0000   0.0000   0.2609
  13.250   1.4782   0.03755   0.03068  -0.0439  0.0736  1.0000  -4.8403   0.0000   0.0000   0.0000   0.2595
  13.500   1.4834   0.03945   0.03263  -0.0428  0.0690  1.0000  -4.9346   0.0000   0.0000   0.0000   0.2582
  13.750   1.4853   0.04168   0.03490  -0.0418  0.0652  1.0000  -5.0158   0.0000   0.0000   0.0000   0.2570
  14.000   1.4886   0.04385   0.03713  -0.0409  0.0616  1.0000  -5.1023   0.0000   0.0000   0.0000   0.2558
  14.250   1.4870   0.04657   0.03988  -0.0400  0.0589  1.0000  -5.1686   0.0000   0.0000   0.0000   0.2547
  14.500   1.4911   0.04882   0.04223  -0.0394  0.0559  1.0000  -5.2548   0.0000   0.0000   0.0000   0.2537
  14.750   1.4906   0.05162   0.04507  -0.0389  0.0536  1.0000  -5.3325   0.0000   0.0000   0.0000   0.2528
  15.000   1.4871   0.05480   0.04829  -0.0384  0.0517  1.0000  -5.3960   0.0000   0.0000   0.0000   0.2520
  15.250   1.4896   0.05742   0.05104  -0.0381  0.0497  1.0000  -5.4844   0.0000   0.0000   0.0000   0.2513
  15.500   1.4899   0.06035   0.05404  -0.0380  0.0480  1.0000  -5.5647   0.0000   0.0000   0.0000   0.2506
  15.750   1.4871   0.06367   0.05741  -0.0379  0.0465  1.0000  -5.6314   0.0000   0.0000   0.0000   0.2501
  16.000   1.4807   0.06740   0.06116  -0.0378  0.0452  1.0000  -5.6776   0.0000   0.0000   0.0000   0.2495
  16.250   1.4819   0.07041   0.06432  -0.0380  0.0441  1.0000  -5.7567   0.0000   0.0000   0.0000   0.2491
  16.500   1.4816   0.07364   0.06766  -0.0382  0.0429  1.0000  -5.8288   0.0000   0.0000   0.0000   0.2487
  16.750   1.4804   0.07700   0.07111  -0.0386  0.0418  1.0000  -5.8993   0.0000   0.0000   0.0000   0.2484
  17.000   1.4785   0.08050   0.07468  -0.0391  0.0408  1.0000  -5.9993   0.0000   0.0000   0.0000   0.2481
  17.250   1.4753   0.08412   0.07834  -0.0396  0.0398  1.0000  -6.0916   0.0000   0.0000   0.0000   0.2480
  17.500   1.4721   0.08745   0.08166  -0.0396  0.0388  1.0000  -6.1815   0.0000   0.0000   0.0000   0.2475
  17.750   1.4711   0.09101   0.08537  -0.0404  0.0382  1.0000  -6.2816   0.0000   0.0000   0.0000   0.2474
  18.000   1.4699   0.09457   0.08906  -0.0412  0.0375  1.0000  -6.3798   0.0000   0.0000   0.0000   0.2474
  18.250   1.4686   0.09812   0.09272  -0.0420  0.0368  1.0000  -6.4774   0.0000   0.0000   0.0000   0.2474
  18.500   1.4675   0.10166   0.09637  -0.0430  0.0361  1.0000  -6.5759   0.0000   0.0000   0.0000   0.2474
  18.750   1.4667   0.10518   0.09997  -0.0440  0.0355  1.0000  -6.6761   0.0000   0.0000   0.0000   0.2476
  19.000   1.4661   0.10865   0.10351  -0.0451  0.0349  1.0000  -6.7790   0.0000   0.0000   0.0000   0.2477
  19.250   1.4660   0.11203   0.10694  -0.0462  0.0343  1.0000  -6.8846   0.0000   0.0000   0.0000   0.2478
  19.500   1.4671   0.11503   0.10997  -0.0471  0.0336  1.0000  -6.9997   0.0000   0.0000   0.0000   0.2477
  19.750   1.4702   0.11727   0.11223  -0.0470  0.0328  1.0000  -7.1249   0.0000   0.0000   0.0000   0.2471
  20.000   1.4672   0.12143   0.11654  -0.0490  0.0325  1.0000  -7.1987   0.0000   0.0000   0.0000   0.2478


