xflr5 v6.61

 Calculated polar for: QX0126

 1 1 Reynolds number fixed          Mach number fixed         

 xtrf =   1.000 (top)        1.000 (bottom)
 Mach =   0.000     Re =     0.120 e 6     Ncrit =   9.000

  alpha     CL        CD       CDp       Cm    Top Xtr Bot Xtr   Cpmin    Chinge    XCp    
 ------- -------- --------- --------- -------- ------- ------- -------- --------- ---------
  -7.250  -0.4496   0.05187   0.04675  -0.0761  0.9635  0.0841  -2.8229   0.0000   0.0000   0.0000   0.0704
  -7.000  -0.4352   0.04725   0.04187  -0.0777  0.9576  0.0819  -2.8184   0.0000   0.0000   0.0000   0.0609
  -6.750  -0.4153   0.04129   0.03524  -0.0809  0.9530  0.0810  -2.8703   0.0000   0.0000   0.0000   0.0442
  -6.500  -0.3970   0.03724   0.03059  -0.0818  0.9470  0.0810  -2.8743   0.0000   0.0000   0.0000   0.0328
  -6.250  -0.3702   0.03403   0.02680  -0.0831  0.9424  0.0819  -2.8292   0.0000   0.0000   0.0000   0.0138
  -6.000  -0.3407   0.03159   0.02360  -0.0843  0.9375  0.0848  -2.7752   0.0000   0.0000   0.0000  -0.0098
  -5.750  -0.3110   0.03029   0.02234  -0.0854  0.9328  0.0882  -2.6411   0.0000   0.0000   0.0000  -0.0374
  -5.500  -0.2774   0.02877   0.02044  -0.0868  0.9285  0.0923  -2.5375   0.0000   0.0000   0.0000  -0.0766
  -5.250  -0.2474   0.02764   0.01917  -0.0876  0.9235  0.0969  -2.4303   0.0000   0.0000   0.0000  -0.1187
  -5.000  -0.2117   0.02663   0.01794  -0.0893  0.9193  0.1039  -2.3115   0.0000   0.0000   0.0000  -0.1879
  -4.750  -0.1821   0.02595   0.01717  -0.0898  0.9138  0.1109  -2.1969   0.0000   0.0000   0.0000  -0.2607
  -4.500  -0.1434   0.02518   0.01632  -0.0919  0.9099  0.1207  -2.0721   0.0000   0.0000   0.0000  -0.4125
  -4.250  -0.1151   0.02462   0.01581  -0.0922  0.9038  0.1307  -1.9624   0.0000   0.0000   0.0000  -0.5765
  -4.000  -0.0752   0.02386   0.01512  -0.0945  0.9003  0.1447  -1.8303   0.0000   0.0000   0.0000  -1.0421
  -3.750  -0.0498   0.02345   0.01479  -0.0942  0.8936  0.1595  -1.7296   0.0000   0.0000   0.0000  -1.6920
  -3.500  -0.0181   0.02298   0.01441  -0.0950  0.8884  0.1795  -1.6229   0.0000   0.0000   0.0000  -5.1148
  -3.250   0.0136   0.02252   0.01407  -0.0958  0.8831  0.2055  -1.5136   0.0000   0.0000   0.0000   7.4419
  -3.000   0.0394   0.02222   0.01393  -0.0956  0.8762  0.2348  -1.4143   0.0000   0.0000   0.0000   2.7237
  -2.750   0.0711   0.02177   0.01369  -0.0963  0.8712  0.2780  -1.3030   0.0000   0.0000   0.0000   1.6306
  -2.500   0.0991   0.02134   0.01356  -0.0964  0.8651  0.3339  -1.1990   0.0000   0.0000   0.0000   1.2390
  -2.250   0.1233   0.02096   0.01356  -0.0959  0.8579  0.4076  -1.1085   0.0000   0.0000   0.0000   1.0394
  -2.000   0.1485   0.02047   0.01363  -0.0951  0.8517  0.5207  -1.0169   0.0000   0.0000   0.0000   0.8995
  -1.750   0.1738   0.02005   0.01372  -0.0935  0.8464  0.6539  -0.9243   0.0000   0.0000   0.0000   0.7948
  -1.500   0.1916   0.02005   0.01398  -0.0906  0.8387  0.7496  -0.8460   0.0000   0.0000   0.0000   0.7278
  -1.250   0.2094   0.02011   0.01417  -0.0874  0.8312  0.8217  -0.7688   0.0000   0.0000   0.0000   0.6712
  -1.000   0.2312   0.02010   0.01422  -0.0847  0.8249  0.8856  -0.7009   0.0000   0.0000   0.0000   0.6189
  -0.750   0.2743   0.01997   0.01404  -0.0861  0.8202  0.9470  -0.6132   0.0000   0.0000   0.0000   0.5655
  -0.500   0.3477   0.01976   0.01368  -0.0942  0.8163  0.9921  -0.6597   0.0000   0.0000   0.0000   0.5214
  -0.250   0.3849   0.01959   0.01338  -0.0960  0.8104  1.0000  -0.6891   0.0000   0.0000   0.0000   0.4993
   0.000   0.4012   0.01969   0.01336  -0.0942  0.8017  1.0000  -0.7068   0.0000   0.0000   0.0000   0.4841
   0.250   0.4211   0.01979   0.01335  -0.0928  0.7933  1.0000  -0.7269   0.0000   0.0000   0.0000   0.4693
   0.500   0.4436   0.01987   0.01333  -0.0918  0.7850  1.0000  -0.7493   0.0000   0.0000   0.0000   0.4555
   0.750   0.4679   0.01991   0.01329  -0.0910  0.7769  1.0000  -0.7731   0.0000   0.0000   0.0000   0.4426
   1.000   0.4935   0.01992   0.01321  -0.0904  0.7693  1.0000  -0.7988   0.0000   0.0000   0.0000   0.4308
   1.250   0.5249   0.01962   0.01282  -0.0902  0.7645  1.0000  -0.8302   0.0000   0.0000   0.0000   0.4192
   1.500   0.5505   0.01961   0.01275  -0.0895  0.7562  1.0000  -0.8574   0.0000   0.0000   0.0000   0.4096
   1.750   0.5765   0.01957   0.01265  -0.0888  0.7478  1.0000  -0.8893   0.0000   0.0000   0.0000   0.4007
   2.000   0.6032   0.01948   0.01251  -0.0881  0.7394  1.0000  -0.9227   0.0000   0.0000   0.0000   0.3925
   2.250   0.6302   0.01935   0.01234  -0.0875  0.7310  1.0000  -0.9581   0.0000   0.0000   0.0000   0.3849
   2.500   0.6576   0.01919   0.01213  -0.0869  0.7225  1.0000  -0.9943   0.0000   0.0000   0.0000   0.3779
   2.750   0.6854   0.01900   0.01190  -0.0863  0.7140  1.0000  -1.0324   0.0000   0.0000   0.0000   0.3714
   3.000   0.7133   0.01880   0.01167  -0.0857  0.7052  1.0000  -1.0713   0.0000   0.0000   0.0000   0.3653
   3.250   0.7412   0.01862   0.01147  -0.0851  0.6963  1.0000  -1.1118   0.0000   0.0000   0.0000   0.3598
   3.500   0.7693   0.01845   0.01126  -0.0846  0.6872  1.0000  -1.1558   0.0000   0.0000   0.0000   0.3546
   3.750   0.7975   0.01825   0.01104  -0.0841  0.6777  1.0000  -1.2031   0.0000   0.0000   0.0000   0.3498
   4.000   0.8260   0.01804   0.01080  -0.0836  0.6678  1.0000  -1.2511   0.0000   0.0000   0.0000   0.3453
   4.250   0.8549   0.01779   0.01051  -0.0831  0.6574  1.0000  -1.3029   0.0000   0.0000   0.0000   0.3410
   4.500   0.8811   0.01772   0.01043  -0.0824  0.6446  1.0000  -1.3543   0.0000   0.0000   0.0000   0.3370
   4.750   0.9086   0.01758   0.01026  -0.0818  0.6320  1.0000  -1.4109   0.0000   0.0000   0.0000   0.3332
   5.000   0.9365   0.01747   0.01010  -0.0813  0.6196  1.0000  -1.4712   0.0000   0.0000   0.0000   0.3296
   5.250   0.9622   0.01751   0.01014  -0.0806  0.6053  1.0000  -1.5332   0.0000   0.0000   0.0000   0.3263
   5.500   0.9888   0.01753   0.01013  -0.0800  0.5911  1.0000  -1.5984   0.0000   0.0000   0.0000   0.3231
   5.750   1.0152   0.01758   0.01013  -0.0793  0.5761  1.0000  -1.6672   0.0000   0.0000   0.0000   0.3201
   6.000   1.0400   0.01773   0.01027  -0.0785  0.5596  1.0000  -1.7343   0.0000   0.0000   0.0000   0.3172
   6.250   1.0647   0.01790   0.01040  -0.0777  0.5425  1.0000  -1.8107   0.0000   0.0000   0.0000   0.3143
   6.500   1.0888   0.01811   0.01056  -0.0769  0.5244  1.0000  -1.8906   0.0000   0.0000   0.0000   0.3116
   6.750   1.1123   0.01838   0.01078  -0.0760  0.5059  1.0000  -1.9838   0.0000   0.0000   0.0000   0.3090
   7.000   1.1352   0.01870   0.01105  -0.0750  0.4870  1.0000  -2.0838   0.0000   0.0000   0.0000   0.3064
   7.250   1.1574   0.01906   0.01135  -0.0740  0.4677  1.0000  -2.1840   0.0000   0.0000   0.0000   0.3039
   7.500   1.1789   0.01948   0.01171  -0.0729  0.4481  1.0000  -2.2840   0.0000   0.0000   0.0000   0.3014
   7.750   1.1989   0.01996   0.01214  -0.0716  0.4279  1.0000  -2.3822   0.0000   0.0000   0.0000   0.2990
   8.000   1.2181   0.02049   0.01263  -0.0703  0.4075  1.0000  -2.4904   0.0000   0.0000   0.0000   0.2966
   8.250   1.2365   0.02107   0.01316  -0.0688  0.3874  1.0000  -2.5982   0.0000   0.0000   0.0000   0.2942
   8.500   1.2541   0.02170   0.01373  -0.0674  0.3678  1.0000  -2.7100   0.0000   0.0000   0.0000   0.2919
   8.750   1.2707   0.02238   0.01434  -0.0658  0.3487  1.0000  -2.8212   0.0000   0.0000   0.0000   0.2896
   9.000   1.2862   0.02312   0.01502  -0.0641  0.3302  1.0000  -2.9306   0.0000   0.0000   0.0000   0.2873
   9.250   1.3007   0.02392   0.01577  -0.0623  0.3123  1.0000  -3.0380   0.0000   0.0000   0.0000   0.2850
   9.500   1.3137   0.02476   0.01657  -0.0604  0.2948  1.0000  -3.1422   0.0000   0.0000   0.0000   0.2827
   9.750   1.3251   0.02564   0.01742  -0.0583  0.2783  1.0000  -3.2430   0.0000   0.0000   0.0000   0.2803
  10.000   1.3348   0.02657   0.01829  -0.0560  0.2633  1.0000  -3.3399   0.0000   0.0000   0.0000   0.2779
  10.250   1.3441   0.02759   0.01926  -0.0538  0.2487  1.0000  -3.4358   0.0000   0.0000   0.0000   0.2755
  10.500   1.3526   0.02870   0.02036  -0.0517  0.2346  1.0000  -3.5292   0.0000   0.0000   0.0000   0.2733
  10.750   1.3616   0.02986   0.02147  -0.0498  0.2217  1.0000  -3.6244   0.0000   0.0000   0.0000   0.2712
  11.000   1.3691   0.03112   0.02273  -0.0478  0.2090  1.0000  -3.7145   0.0000   0.0000   0.0000   0.2691
  11.250   1.3759   0.03244   0.02405  -0.0459  0.1969  1.0000  -3.8029   0.0000   0.0000   0.0000   0.2671
  11.500   1.3833   0.03381   0.02538  -0.0441  0.1858  1.0000  -3.8935   0.0000   0.0000   0.0000   0.2652
  11.750   1.3894   0.03529   0.02686  -0.0423  0.1751  1.0000  -3.9794   0.0000   0.0000   0.0000   0.2634
  12.000   1.3947   0.03688   0.02848  -0.0406  0.1648  1.0000  -4.0612   0.0000   0.0000   0.0000   0.2616
  12.250   1.4000   0.03853   0.03015  -0.0390  0.1552  1.0000  -4.1427   0.0000   0.0000   0.0000   0.2599
  12.500   1.4051   0.04025   0.03188  -0.0375  0.1462  1.0000  -4.2228   0.0000   0.0000   0.0000   0.2582
  12.750   1.4102   0.04204   0.03368  -0.0360  0.1379  1.0000  -4.3042   0.0000   0.0000   0.0000   0.2566
  13.000   1.4155   0.04386   0.03553  -0.0347  0.1303  1.0000  -4.3886   0.0000   0.0000   0.0000   0.2551
  13.250   1.4222   0.04565   0.03727  -0.0334  0.1232  1.0000  -4.4777   0.0000   0.0000   0.0000   0.2536
  13.500   1.4273   0.04758   0.03926  -0.0322  0.1166  1.0000  -4.5577   0.0000   0.0000   0.0000   0.2522
  13.750   1.4303   0.04975   0.04155  -0.0309  0.1105  1.0000  -4.6268   0.0000   0.0000   0.0000   0.2508
  14.000   1.4363   0.05175   0.04355  -0.0298  0.1050  1.0000  -4.7091   0.0000   0.0000   0.0000   0.2495
  14.250   1.4427   0.05366   0.04544  -0.0289  0.0997  1.0000  -4.7957   0.0000   0.0000   0.0000   0.2482
  14.500   1.4430   0.05621   0.04817  -0.0278  0.0952  1.0000  -4.8500   0.0000   0.0000   0.0000   0.2470
  14.750   1.4579   0.05764   0.04943  -0.0270  0.0905  1.0000  -4.9827   0.0000   0.0000   0.0000   0.2458
  15.000   1.4522   0.06074   0.05287  -0.0261  0.0873  1.0000  -5.0178   0.0000   0.0000   0.0000   0.2447
  15.250   1.4612   0.06266   0.05476  -0.0253  0.0838  1.0000  -5.1236   0.0000   0.0000   0.0000   0.2436
  15.500   1.4671   0.06512   0.05735  -0.0245  0.0810  1.0000  -5.2050   0.0000   0.0000   0.0000   0.2425
  15.750   1.4640   0.06826   0.06072  -0.0239  0.0787  1.0000  -5.2480   0.0000   0.0000   0.0000   0.2416
  16.000   1.4712   0.07043   0.06293  -0.0233  0.0762  1.0000  -5.3442   0.0000   0.0000   0.0000   0.2406
  16.250   1.4795   0.07284   0.06540  -0.0226  0.0739  1.0000  -5.4377   0.0000   0.0000   0.0000   0.2396
  16.500   1.4659   0.07709   0.06997  -0.0226  0.0726  1.0000  -5.4303   0.0000   0.0000   0.0000   0.2391
  16.750   1.4559   0.08120   0.07432  -0.0228  0.0712  1.0000  -5.4384   0.0000   0.0000   0.0000   0.2389
  17.000   1.4492   0.08504   0.07835  -0.0232  0.0698  1.0000  -5.4627   0.0000   0.0000   0.0000   0.2386
  17.250   1.4513   0.08795   0.08133  -0.0233  0.0683  1.0000  -5.5427   0.0000   0.0000   0.0000   0.2381
  17.500   1.4622   0.09030   0.08367  -0.0228  0.0668  1.0000  -5.6659   0.0000   0.0000   0.0000   0.2372
  17.750   1.4385   0.09639   0.09009  -0.0248  0.0665  1.0000  -5.6018   0.0000   0.0000   0.0000   0.2382
  18.000   1.4130   0.10319   0.09721  -0.0276  0.0662  1.0000  -5.5202   0.0000   0.0000   0.0000   0.2399
  18.250   1.3850   0.11088   0.10520  -0.0314  0.0661  1.0000  -5.4126   0.0000   0.0000   0.0000   0.2425
  18.500   1.3534   0.11978   0.11439  -0.0367  0.0662  1.0000  -5.2688   0.0000   0.0000   0.0000   0.2463
  18.750   1.3166   0.13043   0.12532  -0.0437  0.0664  1.0000  -5.0700   0.0000   0.0000   0.0000   0.2519
  19.000   1.2726   0.14365   0.13877  -0.0532  0.0669  1.0000  -4.7896   0.0000   0.0000   0.0000   0.2601


