xflr5 v6.61

 Calculated polar for: QX0126

 1 1 Reynolds number fixed          Mach number fixed         

 xtrf =   1.000 (top)        1.000 (bottom)
 Mach =   0.000     Re =     0.400 e 6     Ncrit =   9.000

  alpha     CL        CD       CDp       Cm    Top Xtr Bot Xtr   Cpmin    Chinge    XCp    
 ------- -------- --------- --------- -------- ------- ------- -------- --------- ---------
 -10.000  -0.6491   0.02974   0.02503  -0.0889  0.9079  0.0303  -5.5437   0.0000   0.0000   0.0000   0.0995
  -9.750  -0.6323   0.02791   0.02290  -0.0886  0.9024  0.0311  -5.4097   0.0000   0.0000   0.0000   0.0965
  -9.500  -0.6141   0.02627   0.02094  -0.0882  0.8978  0.0318  -5.2799   0.0000   0.0000   0.0000   0.0932
  -9.250  -0.5930   0.02509   0.01946  -0.0878  0.8930  0.0323  -5.1266   0.0000   0.0000   0.0000   0.0889
  -9.000  -0.5738   0.02300   0.01716  -0.0874  0.8889  0.0332  -4.9922   0.0000   0.0000   0.0000   0.0846
  -8.750  -0.5501   0.02213   0.01625  -0.0872  0.8846  0.0341  -4.7947   0.0000   0.0000   0.0000   0.0785
  -8.500  -0.5260   0.02140   0.01543  -0.0869  0.8810  0.0350  -4.6023   0.0000   0.0000   0.0000   0.0719
  -8.250  -0.5011   0.02057   0.01447  -0.0868  0.8766  0.0360  -4.4189   0.0000   0.0000   0.0000   0.0639
  -8.000  -0.4766   0.01975   0.01349  -0.0863  0.8731  0.0370  -4.2465   0.0000   0.0000   0.0000   0.0559
  -7.750  -0.4506   0.01911   0.01270  -0.0862  0.8687  0.0380  -4.0755   0.0000   0.0000   0.0000   0.0456
  -7.500  -0.4265   0.01799   0.01145  -0.0858  0.8650  0.0392  -3.9220   0.0000   0.0000   0.0000   0.0356
  -7.250  -0.4009   0.01728   0.01073  -0.0856  0.8609  0.0405  -3.7460   0.0000   0.0000   0.0000   0.0230
  -7.000  -0.3747   0.01674   0.01013  -0.0854  0.8569  0.0419  -3.5711   0.0000   0.0000   0.0000   0.0085
  -6.750  -0.3483   0.01622   0.00952  -0.0852  0.8533  0.0435  -3.4109   0.0000   0.0000   0.0000  -0.0083
  -6.500  -0.3211   0.01584   0.00903  -0.0850  0.8490  0.0450  -3.2512   0.0000   0.0000   0.0000  -0.0290
  -6.250  -0.2961   0.01503   0.00823  -0.0847  0.8457  0.0475  -3.1014   0.0000   0.0000   0.0000  -0.0506
  -6.000  -0.2687   0.01465   0.00783  -0.0847  0.8411  0.0500  -2.9497   0.0000   0.0000   0.0000  -0.0802
  -5.750  -0.2417   0.01424   0.00733  -0.0844  0.8376  0.0526  -2.8097   0.0000   0.0000   0.0000  -0.1151
  -5.500  -0.2151   0.01373   0.00685  -0.0843  0.8335  0.0561  -2.6664   0.0000   0.0000   0.0000  -0.1591
  -5.250  -0.1874   0.01347   0.00652  -0.0842  0.8296  0.0599  -2.5224   0.0000   0.0000   0.0000  -0.2177
  -5.000  -0.1605   0.01302   0.00610  -0.0841  0.8256  0.0646  -2.3910   0.0000   0.0000   0.0000  -0.2939
  -4.750  -0.1330   0.01269   0.00574  -0.0840  0.8212  0.0695  -2.2602   0.0000   0.0000   0.0000  -0.4042
  -4.500  -0.1053   0.01243   0.00547  -0.0839  0.8175  0.0753  -2.1276   0.0000   0.0000   0.0000  -0.5736
  -4.250  -0.0774   0.01214   0.00521  -0.0839  0.8130  0.0826  -1.9968   0.0000   0.0000   0.0000  -0.8673
  -4.000  -0.0496   0.01187   0.00492  -0.0838  0.8096  0.0922  -1.8682   0.0000   0.0000   0.0000  -1.4857
  -3.750  -0.0218   0.01157   0.00468  -0.0838  0.8045  0.1046  -1.7500   0.0000   0.0000   0.0000  -3.7001
  -3.500   0.0062   0.01133   0.00447  -0.0837  0.8010  0.1202  -1.6313   0.0000   0.0000   0.0000  14.1135
  -3.250   0.0343   0.01109   0.00430  -0.0838  0.7959  0.1373  -1.5146   0.0000   0.0000   0.0000   2.7514
  -3.000   0.0622   0.01083   0.00408  -0.0838  0.7921  0.1568  -1.3996   0.0000   0.0000   0.0000   1.6231
  -2.750   0.0903   0.01059   0.00396  -0.0838  0.7867  0.1822  -1.2863   0.0000   0.0000   0.0000   1.1950
  -2.250   0.1465   0.01012   0.00368  -0.0839  0.7771  0.2465  -1.0696   0.0000   0.0000   0.0000   0.8305
  -2.000   0.1746   0.00988   0.00354  -0.0839  0.7730  0.2863  -0.9700   0.0000   0.0000   0.0000   0.7361
  -1.750   0.2025   0.00961   0.00346  -0.0839  0.7675  0.3389  -0.8728   0.0000   0.0000   0.0000   0.6685
  -1.500   0.2301   0.00929   0.00336  -0.0839  0.7625  0.4056  -0.7783   0.0000   0.0000   0.0000   0.6174
  -1.250   0.2572   0.00892   0.00329  -0.0838  0.7571  0.4956  -0.7019   0.0000   0.0000   0.0000   0.5775
  -1.000   0.2841   0.00861   0.00327  -0.0835  0.7511  0.5859  -0.6381   0.0000   0.0000   0.0000   0.5450
  -0.750   0.3107   0.00836   0.00324  -0.0831  0.7461  0.6638  -0.6575   0.0000   0.0000   0.0000   0.5175
  -0.500   0.3373   0.00819   0.00325  -0.0825  0.7397  0.7253  -0.6778   0.0000   0.0000   0.0000   0.4942
  -0.250   0.3638   0.00807   0.00325  -0.0819  0.7334  0.7713  -0.6993   0.0000   0.0000   0.0000   0.4742
   0.000   0.3902   0.00798   0.00322  -0.0812  0.7277  0.8108  -0.7240   0.0000   0.0000   0.0000   0.4567
   0.250   0.4160   0.00789   0.00321  -0.0803  0.7210  0.8464  -0.7485   0.0000   0.0000   0.0000   0.4413
   0.500   0.4407   0.00782   0.00320  -0.0792  0.7136  0.8826  -0.7732   0.0000   0.0000   0.0000   0.4276
   0.750   0.4655   0.00776   0.00317  -0.0780  0.7060  0.9182  -0.7982   0.0000   0.0000   0.0000   0.4151
   1.000   0.4955   0.00771   0.00312  -0.0780  0.6979  0.9524  -0.8265   0.0000   0.0000   0.0000   0.4046
   1.250   0.5351   0.00767   0.00304  -0.0802  0.6889  0.9799  -0.8624   0.0000   0.0000   0.0000   0.3968
   1.500   0.5787   0.00766   0.00297  -0.0835  0.6795  0.9994  -0.9011   0.0000   0.0000   0.0000   0.3908
   1.750   0.6053   0.00771   0.00296  -0.0833  0.6707  1.0000  -0.9343   0.0000   0.0000   0.0000   0.3839
   2.000   0.6320   0.00777   0.00296  -0.0831  0.6615  1.0000  -0.9689   0.0000   0.0000   0.0000   0.3774
   2.250   0.6590   0.00784   0.00298  -0.0829  0.6515  1.0000  -1.0044   0.0000   0.0000   0.0000   0.3715
   2.500   0.6861   0.00792   0.00299  -0.0827  0.6407  1.0000  -1.0412   0.0000   0.0000   0.0000   0.3659
   2.750   0.7132   0.00801   0.00302  -0.0825  0.6293  1.0000  -1.0789   0.0000   0.0000   0.0000   0.3608
   3.000   0.7403   0.00811   0.00307  -0.0823  0.6161  1.0000  -1.1177   0.0000   0.0000   0.0000   0.3561
   3.250   0.7673   0.00823   0.00313  -0.0821  0.6031  1.0000  -1.1578   0.0000   0.0000   0.0000   0.3516
   3.500   0.7943   0.00836   0.00321  -0.0820  0.5902  1.0000  -1.2036   0.0000   0.0000   0.0000   0.3475
   3.750   0.8212   0.00852   0.00330  -0.0818  0.5771  1.0000  -1.2496   0.0000   0.0000   0.0000   0.3436
   4.000   0.8480   0.00868   0.00342  -0.0816  0.5633  1.0000  -1.2959   0.0000   0.0000   0.0000   0.3400
   4.250   0.8745   0.00887   0.00354  -0.0814  0.5492  1.0000  -1.3463   0.0000   0.0000   0.0000   0.3365
   4.500   0.9009   0.00906   0.00368  -0.0811  0.5344  1.0000  -1.3993   0.0000   0.0000   0.0000   0.3332
   4.750   0.9269   0.00928   0.00384  -0.0808  0.5185  1.0000  -1.4548   0.0000   0.0000   0.0000   0.3301
   5.000   0.9526   0.00953   0.00402  -0.0805  0.5020  1.0000  -1.5158   0.0000   0.0000   0.0000   0.3271
   5.250   0.9782   0.00977   0.00421  -0.0802  0.4854  1.0000  -1.5786   0.0000   0.0000   0.0000   0.3243
   5.500   1.0037   0.01004   0.00442  -0.0798  0.4688  1.0000  -1.6456   0.0000   0.0000   0.0000   0.3215
   5.750   1.0286   0.01033   0.00465  -0.0794  0.4513  1.0000  -1.7128   0.0000   0.0000   0.0000   0.3189
   6.000   1.0532   0.01064   0.00489  -0.0789  0.4333  1.0000  -1.7817   0.0000   0.0000   0.0000   0.3163
   6.250   1.0775   0.01097   0.00516  -0.0784  0.4152  1.0000  -1.8590   0.0000   0.0000   0.0000   0.3139
   6.500   1.1013   0.01133   0.00545  -0.0779  0.3964  1.0000  -1.9508   0.0000   0.0000   0.0000   0.3115
   6.750   1.1245   0.01171   0.00576  -0.0773  0.3773  1.0000  -2.0512   0.0000   0.0000   0.0000   0.3092
   7.000   1.1474   0.01212   0.00610  -0.0766  0.3583  1.0000  -2.1525   0.0000   0.0000   0.0000   0.3069
   7.250   1.1697   0.01255   0.00646  -0.0759  0.3396  1.0000  -2.2540   0.0000   0.0000   0.0000   0.3047
   7.500   1.1913   0.01303   0.00685  -0.0751  0.3205  1.0000  -2.3554   0.0000   0.0000   0.0000   0.3024
   7.750   1.2123   0.01352   0.00727  -0.0742  0.3015  1.0000  -2.4707   0.0000   0.0000   0.0000   0.3003
   8.000   1.2329   0.01403   0.00771  -0.0732  0.2832  1.0000  -2.5910   0.0000   0.0000   0.0000   0.2982
   8.250   1.2526   0.01457   0.00818  -0.0722  0.2660  1.0000  -2.7110   0.0000   0.0000   0.0000   0.2960
   8.500   1.2719   0.01512   0.00867  -0.0711  0.2494  1.0000  -2.8314   0.0000   0.0000   0.0000   0.2939
   8.750   1.2901   0.01571   0.00920  -0.0699  0.2332  1.0000  -2.9508   0.0000   0.0000   0.0000   0.2918
   9.000   1.3058   0.01633   0.00976  -0.0683  0.2182  1.0000  -3.0651   0.0000   0.0000   0.0000   0.2896
   9.250   1.3210   0.01701   0.01038  -0.0667  0.2034  1.0000  -3.1793   0.0000   0.0000   0.0000   0.2874
   9.500   1.3366   0.01769   0.01102  -0.0652  0.1893  1.0000  -3.2956   0.0000   0.0000   0.0000   0.2853
   9.750   1.3510   0.01848   0.01175  -0.0637  0.1768  1.0000  -3.4098   0.0000   0.0000   0.0000   0.2833
  10.000   1.3657   0.01927   0.01252  -0.0623  0.1652  1.0000  -3.5256   0.0000   0.0000   0.0000   0.2814
  10.250   1.3797   0.02013   0.01335  -0.0610  0.1542  1.0000  -3.6407   0.0000   0.0000   0.0000   0.2795
  10.500   1.3932   0.02104   0.01424  -0.0596  0.1441  1.0000  -3.7551   0.0000   0.0000   0.0000   0.2777
  10.750   1.4064   0.02200   0.01518  -0.0583  0.1345  1.0000  -3.8693   0.0000   0.0000   0.0000   0.2759
  11.000   1.4190   0.02301   0.01619  -0.0569  0.1254  1.0000  -3.9827   0.0000   0.0000   0.0000   0.2742
  11.250   1.4310   0.02409   0.01725  -0.0556  0.1168  1.0000  -4.0949   0.0000   0.0000   0.0000   0.2725
  11.500   1.4423   0.02523   0.01839  -0.0543  0.1087  1.0000  -4.2056   0.0000   0.0000   0.0000   0.2708
  11.750   1.4531   0.02644   0.01960  -0.0530  0.1011  1.0000  -4.3149   0.0000   0.0000   0.0000   0.2692
  12.000   1.4629   0.02773   0.02090  -0.0517  0.0942  1.0000  -4.4216   0.0000   0.0000   0.0000   0.2676
  12.250   1.4717   0.02913   0.02232  -0.0504  0.0879  1.0000  -4.5252   0.0000   0.0000   0.0000   0.2661
  12.500   1.4790   0.03068   0.02386  -0.0491  0.0820  1.0000  -4.6255   0.0000   0.0000   0.0000   0.2645
  12.750   1.4869   0.03220   0.02541  -0.0478  0.0763  1.0000  -4.7324   0.0000   0.0000   0.0000   0.2631
  13.000   1.4940   0.03382   0.02706  -0.0467  0.0712  1.0000  -4.8359   0.0000   0.0000   0.0000   0.2616
  13.250   1.4970   0.03583   0.02907  -0.0454  0.0669  1.0000  -4.9246   0.0000   0.0000   0.0000   0.2602
  13.500   1.5043   0.03750   0.03081  -0.0444  0.0626  1.0000  -5.0284   0.0000   0.0000   0.0000   0.2589
  13.750   1.5046   0.03984   0.03316  -0.0432  0.0593  1.0000  -5.1060   0.0000   0.0000   0.0000   0.2576
  14.000   1.5107   0.04169   0.03511  -0.0423  0.0560  1.0000  -5.2040   0.0000   0.0000   0.0000   0.2564
  14.250   1.5113   0.04415   0.03759  -0.0414  0.0533  1.0000  -5.2818   0.0000   0.0000   0.0000   0.2552
  14.500   1.5118   0.04670   0.04021  -0.0406  0.0510  1.0000  -5.3592   0.0000   0.0000   0.0000   0.2542
  14.750   1.5151   0.04904   0.04264  -0.0400  0.0487  1.0000  -5.4560   0.0000   0.0000   0.0000   0.2532
  15.000   1.5146   0.05187   0.04552  -0.0395  0.0469  1.0000  -5.5371   0.0000   0.0000   0.0000   0.2523
  15.250   1.5079   0.05545   0.04913  -0.0391  0.0452  1.0000  -5.5878   0.0000   0.0000   0.0000   0.2516
  15.500   1.5111   0.05803   0.05184  -0.0389  0.0438  1.0000  -5.6814   0.0000   0.0000   0.0000   0.2509
  15.750   1.5116   0.06095   0.05487  -0.0388  0.0425  1.0000  -5.7636   0.0000   0.0000   0.0000   0.2502
  16.000   1.5106   0.06413   0.05813  -0.0388  0.0412  1.0000  -5.8395   0.0000   0.0000   0.0000   0.2497
  16.250   1.5068   0.06771   0.06177  -0.0390  0.0402  1.0000  -5.9015   0.0000   0.0000   0.0000   0.2493
  16.500   1.4990   0.07179   0.06589  -0.0393  0.0391  1.0000  -5.9543   0.0000   0.0000   0.0000   0.2490
  16.750   1.4964   0.07532   0.06953  -0.0396  0.0383  1.0000  -6.0508   0.0000   0.0000   0.0000   0.2487
  17.000   1.4953   0.07873   0.07306  -0.0401  0.0375  1.0000  -6.1570   0.0000   0.0000   0.0000   0.2485
  17.250   1.4932   0.08232   0.07675  -0.0406  0.0366  1.0000  -6.2562   0.0000   0.0000   0.0000   0.2483
  17.500   1.4904   0.08603   0.08056  -0.0413  0.0359  1.0000  -6.3511   0.0000   0.0000   0.0000   0.2482
  17.750   1.4872   0.08983   0.08443  -0.0421  0.0352  1.0000  -6.4427   0.0000   0.0000   0.0000   0.2482
  18.000   1.4836   0.09370   0.08838  -0.0430  0.0346  1.0000  -6.5311   0.0000   0.0000   0.0000   0.2483
  18.250   1.4797   0.09758   0.09231  -0.0439  0.0339  1.0000  -6.6160   0.0000   0.0000   0.0000   0.2484
  18.500   1.4762   0.10116   0.09592  -0.0445  0.0332  1.0000  -6.7022   0.0000   0.0000   0.0000   0.2483
  18.750   1.4744   0.10464   0.09948  -0.0452  0.0327  1.0000  -6.7967   0.0000   0.0000   0.0000   0.2482
  19.000   1.4726   0.10847   0.10343  -0.0466  0.0323  1.0000  -6.8891   0.0000   0.0000   0.0000   0.2485
  19.250   1.4706   0.11232   0.10740  -0.0480  0.0318  1.0000  -6.9788   0.0000   0.0000   0.0000   0.2489
  19.500   1.4688   0.11613   0.11133  -0.0495  0.0313  1.0000  -7.0686   0.0000   0.0000   0.0000   0.2493
  19.750   1.4672   0.11992   0.11522  -0.0510  0.0308  1.0000  -7.1588   0.0000   0.0000   0.0000   0.2498
  20.000   1.4658   0.12369   0.11908  -0.0527  0.0303  1.0000  -7.2492   0.0000   0.0000   0.0000   0.2503


