xflr5 v6.61

 Calculated polar for: QX0126

 1 1 Reynolds number fixed          Mach number fixed         

 xtrf =   1.000 (top)        1.000 (bottom)
 Mach =   0.000     Re =     0.660 e 6     Ncrit =   9.000

  alpha     CL        CD       CDp       Cm    Top Xtr Bot Xtr   Cpmin    Chinge    XCp    
 ------- -------- --------- --------- -------- ------- ------- -------- --------- ---------
 -10.000  -0.7048   0.02007   0.01478  -0.0821  0.8680  0.0248  -6.2024   0.0000   0.0000   0.0000   0.1204
  -9.750  -0.6801   0.01952   0.01413  -0.0819  0.8645  0.0254  -5.9755   0.0000   0.0000   0.0000   0.1166
  -9.500  -0.6547   0.01892   0.01343  -0.0818  0.8607  0.0261  -5.7541   0.0000   0.0000   0.0000   0.1122
  -9.250  -0.6293   0.01832   0.01272  -0.0816  0.8571  0.0267  -5.5378   0.0000   0.0000   0.0000   0.1075
  -9.000  -0.6035   0.01781   0.01210  -0.0815  0.8540  0.0271  -5.3217   0.0000   0.0000   0.0000   0.1023
  -8.750  -0.5796   0.01671   0.01090  -0.0813  0.8501  0.0279  -5.1329   0.0000   0.0000   0.0000   0.0971
  -8.500  -0.5541   0.01610   0.01024  -0.0812  0.8469  0.0287  -4.9182   0.0000   0.0000   0.0000   0.0909
  -8.250  -0.5273   0.01568   0.00980  -0.0812  0.8434  0.0296  -4.6982   0.0000   0.0000   0.0000   0.0835
  -8.000  -0.5006   0.01524   0.00929  -0.0811  0.8397  0.0304  -4.4964   0.0000   0.0000   0.0000   0.0754
  -7.750  -0.4739   0.01481   0.00877  -0.0810  0.8366  0.0313  -4.3019   0.0000   0.0000   0.0000   0.0666
  -7.500  -0.4464   0.01442   0.00832  -0.0810  0.8326  0.0321  -4.1064   0.0000   0.0000   0.0000   0.0560
  -7.250  -0.4202   0.01381   0.00763  -0.0808  0.8292  0.0331  -3.9250   0.0000   0.0000   0.0000   0.0449
  -7.000  -0.3935   0.01329   0.00710  -0.0808  0.8257  0.0345  -3.7387   0.0000   0.0000   0.0000   0.0318
  -6.750  -0.3659   0.01293   0.00671  -0.0808  0.8219  0.0358  -3.5600   0.0000   0.0000   0.0000   0.0161
  -6.500  -0.3383   0.01261   0.00632  -0.0807  0.8189  0.0373  -3.3862   0.0000   0.0000   0.0000  -0.0020
  -6.250  -0.3103   0.01230   0.00596  -0.0807  0.8149  0.0386  -3.2169   0.0000   0.0000   0.0000  -0.0241
  -6.000  -0.2832   0.01179   0.00545  -0.0807  0.8115  0.0413  -3.0640   0.0000   0.0000   0.0000  -0.0493
  -5.750  -0.2551   0.01154   0.00517  -0.0807  0.8081  0.0439  -2.9041   0.0000   0.0000   0.0000  -0.0815
  -5.500  -0.2272   0.01118   0.00478  -0.0807  0.8039  0.0468  -2.7523   0.0000   0.0000   0.0000  -0.1212
  -5.250  -0.1991   0.01094   0.00451  -0.0807  0.8007  0.0501  -2.6004   0.0000   0.0000   0.0000  -0.1725
  -5.000  -0.1706   0.01068   0.00425  -0.0808  0.7964  0.0534  -2.4588   0.0000   0.0000   0.0000  -0.2422
  -4.750  -0.1423   0.01043   0.00399  -0.0809  0.7929  0.0576  -2.3172   0.0000   0.0000   0.0000  -0.3388
  -4.500  -0.1139   0.01019   0.00375  -0.0809  0.7890  0.0624  -2.1783   0.0000   0.0000   0.0000  -0.4847
  -4.000  -0.0568   0.00977   0.00334  -0.0811  0.7813  0.0763  -1.9054   0.0000   0.0000   0.0000  -1.2181
  -3.750  -0.0282   0.00956   0.00317  -0.0812  0.7768  0.0867  -1.7810   0.0000   0.0000   0.0000  -2.7030
  -3.500   0.0003   0.00936   0.00299  -0.0813  0.7730  0.0984  -1.6584   0.0000   0.0000   0.0000  286.0737
  -3.000   0.0576   0.00900   0.00271  -0.0815  0.7639  0.1294  -1.4183   0.0000   0.0000   0.0000   1.6929
  -2.750   0.0863   0.00880   0.00259  -0.0816  0.7588  0.1470  -1.3019   0.0000   0.0000   0.0000   1.2128
  -2.500   0.1149   0.00861   0.00247  -0.0817  0.7548  0.1697  -1.1881   0.0000   0.0000   0.0000   0.9725
  -2.250   0.1436   0.00842   0.00238  -0.0819  0.7495  0.1972  -1.0777   0.0000   0.0000   0.0000   0.8278
  -2.000   0.1722   0.00825   0.00228  -0.0820  0.7447  0.2262  -0.9763   0.0000   0.0000   0.0000   0.7315
  -1.750   0.2009   0.00807   0.00219  -0.0821  0.7392  0.2589  -0.8772   0.0000   0.0000   0.0000   0.6625
  -1.500   0.2295   0.00788   0.00212  -0.0823  0.7336  0.2975  -0.7805   0.0000   0.0000   0.0000   0.6110
  -1.250   0.2579   0.00768   0.00205  -0.0824  0.7285  0.3460  -0.7028   0.0000   0.0000   0.0000   0.5709
  -1.000   0.2863   0.00742   0.00200  -0.0826  0.7222  0.4094  -0.6417   0.0000   0.0000   0.0000   0.5390
  -0.750   0.3141   0.00712   0.00197  -0.0826  0.7162  0.4999  -0.6615   0.0000   0.0000   0.0000   0.5130
  -0.500   0.3419   0.00688   0.00196  -0.0826  0.7105  0.5806  -0.6820   0.0000   0.0000   0.0000   0.4910
  -0.250   0.3697   0.00668   0.00197  -0.0825  0.7035  0.6508  -0.7042   0.0000   0.0000   0.0000   0.4721
   0.000   0.3974   0.00655   0.00199  -0.0823  0.6961  0.7083  -0.7297   0.0000   0.0000   0.0000   0.4556
   0.250   0.4251   0.00647   0.00200  -0.0821  0.6883  0.7500  -0.7555   0.0000   0.0000   0.0000   0.4411
   0.500   0.4527   0.00641   0.00201  -0.0818  0.6799  0.7845  -0.7819   0.0000   0.0000   0.0000   0.4284
   0.750   0.4799   0.00637   0.00203  -0.0814  0.6709  0.8183  -0.8083   0.0000   0.0000   0.0000   0.4170
   1.000   0.5063   0.00633   0.00206  -0.0808  0.6622  0.8538  -0.8344   0.0000   0.0000   0.0000   0.4067
   1.250   0.5320   0.00630   0.00209  -0.0801  0.6538  0.8879  -0.8618   0.0000   0.0000   0.0000   0.3973
   1.500   0.5570   0.00629   0.00212  -0.0791  0.6449  0.9206  -0.8890   0.0000   0.0000   0.0000   0.3885
   1.750   0.5848   0.00629   0.00214  -0.0788  0.6349  0.9544  -0.9213   0.0000   0.0000   0.0000   0.3809
   2.000   0.6218   0.00633   0.00214  -0.0806  0.6234  0.9826  -0.9633   0.0000   0.0000   0.0000   0.3755
   2.250   0.6593   0.00641   0.00215  -0.0827  0.6108  1.0000  -1.0066   0.0000   0.0000   0.0000   0.3710
   2.500   0.6865   0.00652   0.00219  -0.0826  0.5974  1.0000  -1.0436   0.0000   0.0000   0.0000   0.3656
   3.000   0.7411   0.00677   0.00232  -0.0824  0.5711  1.0000  -1.1204   0.0000   0.0000   0.0000   0.3560
   3.250   0.7684   0.00692   0.00240  -0.0823  0.5580  1.0000  -1.1614   0.0000   0.0000   0.0000   0.3516
   3.500   0.7957   0.00708   0.00250  -0.0822  0.5444  1.0000  -1.2074   0.0000   0.0000   0.0000   0.3476
   3.750   0.8228   0.00725   0.00261  -0.0821  0.5305  1.0000  -1.2536   0.0000   0.0000   0.0000   0.3438
   4.000   0.8499   0.00743   0.00272  -0.0820  0.5157  1.0000  -1.3002   0.0000   0.0000   0.0000   0.3402
   4.250   0.8766   0.00764   0.00286  -0.0818  0.4996  1.0000  -1.3507   0.0000   0.0000   0.0000   0.3368
   4.500   0.9032   0.00785   0.00300  -0.0817  0.4831  1.0000  -1.4041   0.0000   0.0000   0.0000   0.3336
   4.750   0.9297   0.00807   0.00316  -0.0815  0.4673  1.0000  -1.4603   0.0000   0.0000   0.0000   0.3305
   5.000   0.9561   0.00831   0.00333  -0.0813  0.4510  1.0000  -1.5230   0.0000   0.0000   0.0000   0.3276
   5.250   0.9822   0.00856   0.00352  -0.0811  0.4337  1.0000  -1.5877   0.0000   0.0000   0.0000   0.3249
   5.500   1.0080   0.00883   0.00371  -0.0808  0.4161  1.0000  -1.6554   0.0000   0.0000   0.0000   0.3222
   5.750   1.0335   0.00912   0.00393  -0.0806  0.3983  1.0000  -1.7235   0.0000   0.0000   0.0000   0.3196
   6.000   1.0587   0.00943   0.00416  -0.0802  0.3798  1.0000  -1.7939   0.0000   0.0000   0.0000   0.3172
   6.250   1.0836   0.00976   0.00441  -0.0799  0.3607  1.0000  -1.8726   0.0000   0.0000   0.0000   0.3148
   6.500   1.1082   0.01011   0.00468  -0.0795  0.3424  1.0000  -1.9736   0.0000   0.0000   0.0000   0.3125
   6.750   1.1324   0.01047   0.00496  -0.0790  0.3239  1.0000  -2.0765   0.0000   0.0000   0.0000   0.3102
   7.000   1.1560   0.01087   0.00527  -0.0785  0.3042  1.0000  -2.1797   0.0000   0.0000   0.0000   0.3080
   7.250   1.1794   0.01128   0.00560  -0.0779  0.2855  1.0000  -2.2840   0.0000   0.0000   0.0000   0.3059
   7.500   1.2026   0.01169   0.00593  -0.0774  0.2688  1.0000  -2.3929   0.0000   0.0000   0.0000   0.3038
   7.750   1.2250   0.01214   0.00630  -0.0767  0.2514  1.0000  -2.5173   0.0000   0.0000   0.0000   0.3017
   8.000   1.2468   0.01261   0.00669  -0.0760  0.2340  1.0000  -2.6421   0.0000   0.0000   0.0000   0.2997
   8.250   1.2680   0.01311   0.00710  -0.0751  0.2171  1.0000  -2.7673   0.0000   0.0000   0.0000   0.2977
   8.500   1.2887   0.01362   0.00753  -0.0742  0.2005  1.0000  -2.8930   0.0000   0.0000   0.0000   0.2957
   8.750   1.3086   0.01415   0.00799  -0.0733  0.1855  1.0000  -3.0187   0.0000   0.0000   0.0000   0.2937
   9.000   1.3285   0.01466   0.00845  -0.0723  0.1727  1.0000  -3.1460   0.0000   0.0000   0.0000   0.2917
   9.250   1.3465   0.01519   0.00893  -0.0710  0.1613  1.0000  -3.2697   0.0000   0.0000   0.0000   0.2896
   9.500   1.3632   0.01577   0.00947  -0.0695  0.1512  1.0000  -3.3912   0.0000   0.0000   0.0000   0.2875
   9.750   1.3797   0.01638   0.01005  -0.0681  0.1415  1.0000  -3.5134   0.0000   0.0000   0.0000   0.2855
  10.000   1.3961   0.01702   0.01067  -0.0667  0.1320  1.0000  -3.6367   0.0000   0.0000   0.0000   0.2836
  10.250   1.4121   0.01771   0.01133  -0.0654  0.1228  1.0000  -3.7601   0.0000   0.0000   0.0000   0.2817
  10.500   1.4274   0.01846   0.01205  -0.0641  0.1139  1.0000  -3.8825   0.0000   0.0000   0.0000   0.2799
  10.750   1.4420   0.01927   0.01284  -0.0628  0.1054  1.0000  -4.0039   0.0000   0.0000   0.0000   0.2781
  11.000   1.4558   0.02015   0.01370  -0.0615  0.0975  1.0000  -4.1241   0.0000   0.0000   0.0000   0.2763
  11.250   1.4688   0.02110   0.01463  -0.0601  0.0904  1.0000  -4.2425   0.0000   0.0000   0.0000   0.2746
  11.500   1.4825   0.02203   0.01555  -0.0589  0.0838  1.0000  -4.3638   0.0000   0.0000   0.0000   0.2729
  11.750   1.4954   0.02302   0.01655  -0.0576  0.0778  1.0000  -4.4837   0.0000   0.0000   0.0000   0.2713
  12.000   1.5074   0.02410   0.01763  -0.0563  0.0723  1.0000  -4.6010   0.0000   0.0000   0.0000   0.2697
  12.250   1.5175   0.02533   0.01885  -0.0550  0.0669  1.0000  -4.7128   0.0000   0.0000   0.0000   0.2681
  12.500   1.5293   0.02645   0.02000  -0.0538  0.0622  1.0000  -4.8367   0.0000   0.0000   0.0000   0.2666
  12.750   1.5389   0.02776   0.02133  -0.0525  0.0579  1.0000  -4.9536   0.0000   0.0000   0.0000   0.2650
  13.000   1.5475   0.02916   0.02274  -0.0512  0.0538  1.0000  -5.0679   0.0000   0.0000   0.0000   0.2635
  13.250   1.5562   0.03060   0.02421  -0.0500  0.0503  1.0000  -5.1816   0.0000   0.0000   0.0000   0.2621
  13.500   1.5634   0.03217   0.02581  -0.0487  0.0471  1.0000  -5.2909   0.0000   0.0000   0.0000   0.2606
  13.750   1.5693   0.03389   0.02756  -0.0475  0.0444  1.0000  -5.3944   0.0000   0.0000   0.0000   0.2592
  14.000   1.5765   0.03552   0.02925  -0.0465  0.0420  1.0000  -5.5042   0.0000   0.0000   0.0000   0.2579
  14.250   1.5799   0.03753   0.03129  -0.0453  0.0399  1.0000  -5.6092   0.0000   0.0000   0.0000   0.2566
  14.500   1.5829   0.03962   0.03344  -0.0442  0.0382  1.0000  -5.7112   0.0000   0.0000   0.0000   0.2554
  14.750   1.5883   0.04155   0.03545  -0.0434  0.0368  1.0000  -5.8246   0.0000   0.0000   0.0000   0.2542
  15.000   1.5914   0.04377   0.03773  -0.0426  0.0354  1.0000  -5.9287   0.0000   0.0000   0.0000   0.2531
  15.250   1.5915   0.04639   0.04040  -0.0419  0.0341  1.0000  -6.0484   0.0000   0.0000   0.0000   0.2521
  15.500   1.5863   0.04966   0.04374  -0.0412  0.0328  1.0000  -6.1422   0.0000   0.0000   0.0000   0.2512
  15.750   1.5911   0.05195   0.04612  -0.0409  0.0321  1.0000  -6.2964   0.0000   0.0000   0.0000   0.2503
  16.000   1.5932   0.05456   0.04883  -0.0406  0.0313  1.0000  -6.4357   0.0000   0.0000   0.0000   0.2496
  16.250   1.5936   0.05744   0.05179  -0.0405  0.0305  1.0000  -6.5656   0.0000   0.0000   0.0000   0.2489
  16.500   1.5925   0.06058   0.05501  -0.0404  0.0298  1.0000  -6.6856   0.0000   0.0000   0.0000   0.2483
  16.750   1.5891   0.06405   0.05857  -0.0405  0.0292  1.0000  -6.7917   0.0000   0.0000   0.0000   0.2478
  17.000   1.5829   0.06797   0.06258  -0.0408  0.0286  1.0000  -6.8785   0.0000   0.0000   0.0000   0.2475
  17.250   1.5729   0.07247   0.06717  -0.0413  0.0280  1.0000  -6.9378   0.0000   0.0000   0.0000   0.2474
  17.500   1.5606   0.07736   0.07216  -0.0421  0.0275  1.0000  -6.9788   0.0000   0.0000   0.0000   0.2475
  17.750   1.5585   0.08097   0.07588  -0.0427  0.0272  1.0000  -7.0886   0.0000   0.0000   0.0000   0.2473
  18.000   1.5549   0.08482   0.07983  -0.0434  0.0268  1.0000  -7.1878   0.0000   0.0000   0.0000   0.2472
  18.250   1.5502   0.08888   0.08400  -0.0444  0.0265  1.0000  -7.2778   0.0000   0.0000   0.0000   0.2473
  18.500   1.5446   0.09311   0.08833  -0.0454  0.0261  1.0000  -7.3599   0.0000   0.0000   0.0000   0.2474
  18.750   1.5384   0.09747   0.09279  -0.0466  0.0257  1.0000  -7.4365   0.0000   0.0000   0.0000   0.2477
  19.000   1.5321   0.10191   0.09731  -0.0480  0.0254  1.0000  -7.5099   0.0000   0.0000   0.0000   0.2481
  19.250   1.5257   0.10639   0.10188  -0.0495  0.0250  1.0000  -7.5806   0.0000   0.0000   0.0000   0.2486
  19.500   1.5193   0.11092   0.10650  -0.0511  0.0247  1.0000  -7.6490   0.0000   0.0000   0.0000   0.2492
  19.750   1.5128   0.11551   0.11117  -0.0529  0.0244  1.0000  -7.7134   0.0000   0.0000   0.0000   0.2499
  20.000   1.5059   0.12018   0.11593  -0.0549  0.0240  1.0000  -7.7712   0.0000   0.0000   0.0000   0.2507


