xflr5 v6.61

 Calculated polar for: QX0126

 1 1 Reynolds number fixed          Mach number fixed         

 xtrf =   1.000 (top)        1.000 (bottom)
 Mach =   0.000     Re =     0.580 e 6     Ncrit =   9.000

  alpha     CL        CD       CDp       Cm    Top Xtr Bot Xtr   Cpmin    Chinge    XCp    
 ------- -------- --------- --------- -------- ------- ------- -------- --------- ---------
 -10.000  -0.6939   0.02209   0.01684  -0.0834  0.8768  0.0260  -6.0714   0.0000   0.0000   0.0000   0.1165
  -9.750  -0.6703   0.02135   0.01594  -0.0831  0.8732  0.0266  -5.8632   0.0000   0.0000   0.0000   0.1129
  -9.500  -0.6454   0.02072   0.01516  -0.0830  0.8690  0.0271  -5.6520   0.0000   0.0000   0.0000   0.1084
  -9.250  -0.6237   0.01925   0.01354  -0.0827  0.8654  0.0278  -5.4817   0.0000   0.0000   0.0000   0.1045
  -9.000  -0.5994   0.01843   0.01267  -0.0825  0.8619  0.0285  -5.2739   0.0000   0.0000   0.0000   0.0995
  -8.750  -0.5735   0.01791   0.01212  -0.0825  0.8581  0.0293  -5.0537   0.0000   0.0000   0.0000   0.0935
  -8.500  -0.5476   0.01744   0.01156  -0.0823  0.8550  0.0301  -4.8395   0.0000   0.0000   0.0000   0.0870
  -8.250  -0.5211   0.01691   0.01095  -0.0823  0.8511  0.0310  -4.6314   0.0000   0.0000   0.0000   0.0795
  -8.000  -0.4948   0.01640   0.01034  -0.0821  0.8476  0.0318  -4.4381   0.0000   0.0000   0.0000   0.0714
  -7.750  -0.4679   0.01599   0.00982  -0.0820  0.8440  0.0324  -4.2461   0.0000   0.0000   0.0000   0.0621
  -7.500  -0.4433   0.01497   0.00876  -0.0818  0.8401  0.0337  -4.0781   0.0000   0.0000   0.0000   0.0527
  -7.250  -0.4166   0.01454   0.00830  -0.0817  0.8370  0.0349  -3.8852   0.0000   0.0000   0.0000   0.0411
  -7.000  -0.3893   0.01414   0.00787  -0.0817  0.8330  0.0362  -3.6960   0.0000   0.0000   0.0000   0.0271
  -6.750  -0.3620   0.01376   0.00740  -0.0816  0.8294  0.0375  -3.5248   0.0000   0.0000   0.0000   0.0113
  -6.500  -0.3347   0.01335   0.00692  -0.0815  0.8259  0.0387  -3.3582   0.0000   0.0000   0.0000  -0.0071
  -6.250  -0.3081   0.01275   0.00633  -0.0815  0.8220  0.0409  -3.1965   0.0000   0.0000   0.0000  -0.0284
  -6.000  -0.2803   0.01247   0.00600  -0.0814  0.8190  0.0433  -3.0372   0.0000   0.0000   0.0000  -0.0548
  -5.750  -0.2524   0.01213   0.00562  -0.0814  0.8149  0.0457  -2.8852   0.0000   0.0000   0.0000  -0.0878
  -5.500  -0.2249   0.01175   0.00524  -0.0814  0.8112  0.0489  -2.7327   0.0000   0.0000   0.0000  -0.1279
  -5.250  -0.1966   0.01154   0.00498  -0.0814  0.8074  0.0520  -2.5825   0.0000   0.0000   0.0000  -0.1813
  -5.000  -0.1688   0.01117   0.00462  -0.0814  0.8033  0.0560  -2.4447   0.0000   0.0000   0.0000  -0.2511
  -4.750  -0.1404   0.01100   0.00439  -0.0814  0.8001  0.0599  -2.3038   0.0000   0.0000   0.0000  -0.3511
  -4.500  -0.1123   0.01068   0.00412  -0.0815  0.7957  0.0655  -2.1671   0.0000   0.0000   0.0000  -0.5007
  -4.250  -0.0840   0.01043   0.00386  -0.0815  0.7922  0.0718  -2.0319   0.0000   0.0000   0.0000  -0.7506
  -4.000  -0.0555   0.01021   0.00368  -0.0816  0.7877  0.0801  -1.8977   0.0000   0.0000   0.0000  -1.2632
  -3.750  -0.0270   0.01000   0.00348  -0.0817  0.7839  0.0908  -1.7744   0.0000   0.0000   0.0000  -2.8514
  -3.500   0.0015   0.00980   0.00330  -0.0817  0.7795  0.1032  -1.6528   0.0000   0.0000   0.0000  56.0311
  -3.250   0.0299   0.00958   0.00314  -0.0818  0.7751  0.1189  -1.5324   0.0000   0.0000   0.0000   3.0452
  -3.000   0.0585   0.00939   0.00300  -0.0819  0.7705  0.1359  -1.4143   0.0000   0.0000   0.0000   1.6788
  -2.750   0.0870   0.00918   0.00285  -0.0820  0.7660  0.1548  -1.2987   0.0000   0.0000   0.0000   1.2095
  -2.500   0.1156   0.00898   0.00275  -0.0821  0.7612  0.1804  -1.1852   0.0000   0.0000   0.0000   0.9718
  -2.250   0.1441   0.00879   0.00263  -0.0822  0.7568  0.2087  -1.0760   0.0000   0.0000   0.0000   0.8283
  -2.000   0.1727   0.00860   0.00254  -0.0824  0.7516  0.2404  -0.9750   0.0000   0.0000   0.0000   0.7323
  -1.750   0.2012   0.00841   0.00243  -0.0825  0.7469  0.2754  -0.8762   0.0000   0.0000   0.0000   0.6635
  -1.500   0.2296   0.00819   0.00237  -0.0826  0.7408  0.3204  -0.7799   0.0000   0.0000   0.0000   0.6121
  -1.250   0.2579   0.00795   0.00229  -0.0827  0.7356  0.3755  -0.7024   0.0000   0.0000   0.0000   0.5721
  -1.000   0.2858   0.00765   0.00224  -0.0828  0.7298  0.4540  -0.6410   0.0000   0.0000   0.0000   0.5403
  -0.750   0.3134   0.00734   0.00222  -0.0828  0.7236  0.5461  -0.6607   0.0000   0.0000   0.0000   0.5141
  -0.500   0.3411   0.00712   0.00221  -0.0826  0.7178  0.6211  -0.6812   0.0000   0.0000   0.0000   0.4917
  -0.250   0.3685   0.00695   0.00222  -0.0824  0.7116  0.6884  -0.7032   0.0000   0.0000   0.0000   0.4725
   0.000   0.3960   0.00683   0.00224  -0.0821  0.7044  0.7365  -0.7286   0.0000   0.0000   0.0000   0.4558
   0.250   0.4235   0.00675   0.00225  -0.0818  0.6968  0.7750  -0.7542   0.0000   0.0000   0.0000   0.4412
   0.500   0.4506   0.00669   0.00225  -0.0814  0.6888  0.8093  -0.7804   0.0000   0.0000   0.0000   0.4283
   0.750   0.4771   0.00664   0.00226  -0.0808  0.6802  0.8440  -0.8064   0.0000   0.0000   0.0000   0.4167
   1.000   0.5026   0.00660   0.00228  -0.0800  0.6713  0.8798  -0.8319   0.0000   0.0000   0.0000   0.4061
   1.250   0.5276   0.00657   0.00230  -0.0790  0.6628  0.9128  -0.8589   0.0000   0.0000   0.0000   0.3964
   1.500   0.5545   0.00656   0.00230  -0.0784  0.6542  0.9472  -0.8872   0.0000   0.0000   0.0000   0.3878
   1.750   0.5904   0.00658   0.00230  -0.0799  0.6444  0.9763  -0.9251   0.0000   0.0000   0.0000   0.3815
   2.000   0.6311   0.00662   0.00229  -0.0826  0.6333  0.9982  -0.9698   0.0000   0.0000   0.0000   0.3768
   2.250   0.6592   0.00671   0.00231  -0.0827  0.6219  1.0000  -1.0062   0.0000   0.0000   0.0000   0.3711
   2.500   0.6864   0.00681   0.00235  -0.0826  0.6093  1.0000  -1.0432   0.0000   0.0000   0.0000   0.3656
   2.750   0.7136   0.00693   0.00240  -0.0824  0.5958  1.0000  -1.0808   0.0000   0.0000   0.0000   0.3606
   3.000   0.7408   0.00706   0.00247  -0.0823  0.5830  1.0000  -1.1198   0.0000   0.0000   0.0000   0.3559
   3.250   0.7682   0.00720   0.00255  -0.0822  0.5698  1.0000  -1.1606   0.0000   0.0000   0.0000   0.3516
   3.500   0.7953   0.00736   0.00264  -0.0821  0.5566  1.0000  -1.2064   0.0000   0.0000   0.0000   0.3475
   3.750   0.8224   0.00752   0.00275  -0.0820  0.5426  1.0000  -1.2527   0.0000   0.0000   0.0000   0.3437
   4.000   0.8493   0.00771   0.00286  -0.0818  0.5285  1.0000  -1.2991   0.0000   0.0000   0.0000   0.3401
   4.250   0.8760   0.00790   0.00300  -0.0817  0.5131  1.0000  -1.3497   0.0000   0.0000   0.0000   0.3367
   4.500   0.9026   0.00811   0.00314  -0.0815  0.4965  1.0000  -1.4029   0.0000   0.0000   0.0000   0.3335
   4.750   0.9289   0.00834   0.00330  -0.0813  0.4801  1.0000  -1.4590   0.0000   0.0000   0.0000   0.3304
   5.000   0.9551   0.00858   0.00348  -0.0811  0.4644  1.0000  -1.5212   0.0000   0.0000   0.0000   0.3275
   5.500   1.0067   0.00911   0.00387  -0.0805  0.4299  1.0000  -1.6527   0.0000   0.0000   0.0000   0.3220
   5.750   1.0321   0.00939   0.00408  -0.0802  0.4122  1.0000  -1.7207   0.0000   0.0000   0.0000   0.3194
   6.000   1.0572   0.00970   0.00432  -0.0799  0.3939  1.0000  -1.7907   0.0000   0.0000   0.0000   0.3169
   6.250   1.0818   0.01004   0.00458  -0.0794  0.3751  1.0000  -1.8687   0.0000   0.0000   0.0000   0.3145
   6.500   1.1062   0.01039   0.00486  -0.0790  0.3563  1.0000  -1.9675   0.0000   0.0000   0.0000   0.3122
   6.750   1.1302   0.01076   0.00515  -0.0785  0.3380  1.0000  -2.0698   0.0000   0.0000   0.0000   0.3099
   7.000   1.1538   0.01115   0.00546  -0.0780  0.3188  1.0000  -2.1728   0.0000   0.0000   0.0000   0.3077
   7.250   1.1769   0.01157   0.00579  -0.0774  0.2993  1.0000  -2.2763   0.0000   0.0000   0.0000   0.3056
   7.500   1.1996   0.01200   0.00614  -0.0768  0.2812  1.0000  -2.3823   0.0000   0.0000   0.0000   0.3034
   7.750   1.2218   0.01246   0.00652  -0.0761  0.2644  1.0000  -2.5058   0.0000   0.0000   0.0000   0.3014
   8.000   1.2433   0.01294   0.00693  -0.0753  0.2470  1.0000  -2.6294   0.0000   0.0000   0.0000   0.2993
   8.250   1.2642   0.01345   0.00735  -0.0744  0.2301  1.0000  -2.7535   0.0000   0.0000   0.0000   0.2973
   8.500   1.2845   0.01397   0.00780  -0.0735  0.2134  1.0000  -2.8780   0.0000   0.0000   0.0000   0.2952
   8.750   1.3042   0.01450   0.00826  -0.0725  0.1971  1.0000  -3.0027   0.0000   0.0000   0.0000   0.2932
   9.000   1.3230   0.01507   0.00876  -0.0713  0.1832  1.0000  -3.1264   0.0000   0.0000   0.0000   0.2912
   9.250   1.3400   0.01562   0.00926  -0.0699  0.1707  1.0000  -3.2470   0.0000   0.0000   0.0000   0.2891
   9.500   1.3562   0.01624   0.00984  -0.0684  0.1597  1.0000  -3.3667   0.0000   0.0000   0.0000   0.2870
   9.750   1.3721   0.01690   0.01047  -0.0669  0.1498  1.0000  -3.4865   0.0000   0.0000   0.0000   0.2849
  10.000   1.3883   0.01757   0.01112  -0.0656  0.1401  1.0000  -3.6086   0.0000   0.0000   0.0000   0.2830
  10.250   1.4040   0.01828   0.01181  -0.0643  0.1305  1.0000  -3.7306   0.0000   0.0000   0.0000   0.2812
  10.500   1.4192   0.01906   0.01256  -0.0630  0.1214  1.0000  -3.8519   0.0000   0.0000   0.0000   0.2793
  10.750   1.4336   0.01989   0.01337  -0.0617  0.1126  1.0000  -3.9721   0.0000   0.0000   0.0000   0.2776
  11.000   1.4473   0.02079   0.01426  -0.0604  0.1044  1.0000  -4.0911   0.0000   0.0000   0.0000   0.2758
  11.250   1.4602   0.02176   0.01521  -0.0591  0.0967  1.0000  -4.2087   0.0000   0.0000   0.0000   0.2741
  11.500   1.4723   0.02281   0.01625  -0.0577  0.0899  1.0000  -4.3243   0.0000   0.0000   0.0000   0.2724
  11.750   1.4844   0.02389   0.01731  -0.0564  0.0832  1.0000  -4.4404   0.0000   0.0000   0.0000   0.2708
  12.000   1.4964   0.02497   0.01842  -0.0552  0.0772  1.0000  -4.5571   0.0000   0.0000   0.0000   0.2692
  12.250   1.5073   0.02616   0.01961  -0.0539  0.0719  1.0000  -4.6705   0.0000   0.0000   0.0000   0.2676
  12.500   1.5161   0.02753   0.02098  -0.0525  0.0667  1.0000  -4.7823   0.0000   0.0000   0.0000   0.2660
  12.750   1.5265   0.02880   0.02227  -0.0513  0.0620  1.0000  -4.9011   0.0000   0.0000   0.0000   0.2646
  13.000   1.5346   0.03027   0.02377  -0.0501  0.0579  1.0000  -5.0117   0.0000   0.0000   0.0000   0.2631
  13.250   1.5420   0.03182   0.02534  -0.0488  0.0540  1.0000  -5.1206   0.0000   0.0000   0.0000   0.2616
  13.500   1.5487   0.03347   0.02703  -0.0476  0.0507  1.0000  -5.2255   0.0000   0.0000   0.0000   0.2602
  13.750   1.5550   0.03517   0.02877  -0.0465  0.0477  1.0000  -5.3303   0.0000   0.0000   0.0000   0.2588
  14.000   1.5570   0.03730   0.03093  -0.0452  0.0451  1.0000  -5.4173   0.0000   0.0000   0.0000   0.2575
  14.250   1.5642   0.03901   0.03272  -0.0443  0.0430  1.0000  -5.5312   0.0000   0.0000   0.0000   0.2562
  14.500   1.5677   0.04109   0.03485  -0.0434  0.0410  1.0000  -5.6354   0.0000   0.0000   0.0000   0.2550
  14.750   1.5665   0.04372   0.03752  -0.0424  0.0392  1.0000  -5.7181   0.0000   0.0000   0.0000   0.2539
  15.000   1.5695   0.04603   0.03992  -0.0417  0.0379  1.0000  -5.8178   0.0000   0.0000   0.0000   0.2529
  15.250   1.5729   0.04836   0.04234  -0.0412  0.0367  1.0000  -5.9204   0.0000   0.0000   0.0000   0.2519
  15.500   1.5743   0.05097   0.04502  -0.0407  0.0355  1.0000  -6.0375   0.0000   0.0000   0.0000   0.2511
  15.750   1.5729   0.05397   0.04807  -0.0404  0.0344  1.0000  -6.1539   0.0000   0.0000   0.0000   0.2503
  16.000   1.5665   0.05765   0.05183  -0.0402  0.0334  1.0000  -6.2378   0.0000   0.0000   0.0000   0.2497
  16.250   1.5625   0.06114   0.05541  -0.0402  0.0326  1.0000  -6.3356   0.0000   0.0000   0.0000   0.2492
  16.500   1.5631   0.06414   0.05852  -0.0402  0.0320  1.0000  -6.4619   0.0000   0.0000   0.0000   0.2486
  16.750   1.5617   0.06745   0.06193  -0.0404  0.0313  1.0000  -6.5757   0.0000   0.0000   0.0000   0.2482
  17.000   1.5589   0.07099   0.06557  -0.0408  0.0307  1.0000  -6.6807   0.0000   0.0000   0.0000   0.2478
  17.250   1.5551   0.07473   0.06940  -0.0412  0.0301  1.0000  -6.7790   0.0000   0.0000   0.0000   0.2476
  17.500   1.5502   0.07867   0.07344  -0.0419  0.0296  1.0000  -6.8694   0.0000   0.0000   0.0000   0.2475
  17.750   1.5436   0.08291   0.07776  -0.0427  0.0291  1.0000  -6.9473   0.0000   0.0000   0.0000   0.2475
  18.000   1.5352   0.08746   0.08239  -0.0437  0.0286  1.0000  -7.0108   0.0000   0.0000   0.0000   0.2477
  18.250   1.5247   0.09233   0.08735  -0.0448  0.0281  1.0000  -7.0567   0.0000   0.0000   0.0000   0.2481
  18.500   1.5124   0.09746   0.09255  -0.0461  0.0276  1.0000  -7.0853   0.0000   0.0000   0.0000   0.2485
  18.750   1.5083   0.10156   0.09676  -0.0473  0.0273  1.0000  -7.1709   0.0000   0.0000   0.0000   0.2488
  19.000   1.5047   0.10562   0.10093  -0.0486  0.0270  1.0000  -7.2589   0.0000   0.0000   0.0000   0.2491
  19.250   1.5006   0.10978   0.10519  -0.0501  0.0267  1.0000  -7.3417   0.0000   0.0000   0.0000   0.2495
  19.500   1.4967   0.11395   0.10946  -0.0516  0.0263  1.0000  -7.4228   0.0000   0.0000   0.0000   0.2500
  19.750   1.4927   0.11814   0.11375  -0.0533  0.0260  1.0000  -7.5019   0.0000   0.0000   0.0000   0.2506
  20.000   1.4890   0.12233   0.11802  -0.0551  0.0256  1.0000  -7.5809   0.0000   0.0000   0.0000   0.2513


