xflr5 v6.61

 Calculated polar for: QX0126

 1 1 Reynolds number fixed          Mach number fixed         

 xtrf =   1.000 (top)        1.000 (bottom)
 Mach =   0.000     Re =     0.880 e 6     Ncrit =   9.000

  alpha     CL        CD       CDp       Cm    Top Xtr Bot Xtr   Cpmin    Chinge    XCp    
 ------- -------- --------- --------- -------- ------- ------- -------- --------- ---------
 -10.000  -0.7205   0.01731   0.01200  -0.0799  0.8504  0.0224  -6.3996   0.0000   0.0000   0.0000   0.1261
  -9.750  -0.6941   0.01693   0.01154  -0.0798  0.8471  0.0227  -6.1566   0.0000   0.0000   0.0000   0.1221
  -9.500  -0.6707   0.01589   0.01040  -0.0796  0.8439  0.0235  -5.9528   0.0000   0.0000   0.0000   0.1185
  -9.250  -0.6446   0.01537   0.00986  -0.0796  0.8404  0.0242  -5.7173   0.0000   0.0000   0.0000   0.1139
  -9.000  -0.6179   0.01500   0.00943  -0.0795  0.8375  0.0248  -5.4810   0.0000   0.0000   0.0000   0.1087
  -8.750  -0.5909   0.01461   0.00900  -0.0795  0.8342  0.0255  -5.2500   0.0000   0.0000   0.0000   0.1029
  -8.500  -0.5637   0.01423   0.00856  -0.0795  0.8307  0.0261  -5.0231   0.0000   0.0000   0.0000   0.0966
  -8.250  -0.5365   0.01391   0.00817  -0.0794  0.8277  0.0268  -4.8009   0.0000   0.0000   0.0000   0.0896
  -8.000  -0.5086   0.01363   0.00783  -0.0795  0.8239  0.0272  -4.5884   0.0000   0.0000   0.0000   0.0813
  -7.750  -0.4830   0.01286   0.00701  -0.0794  0.8206  0.0283  -4.4035   0.0000   0.0000   0.0000   0.0733
  -7.500  -0.4556   0.01250   0.00661  -0.0794  0.8174  0.0292  -4.1998   0.0000   0.0000   0.0000   0.0634
  -7.250  -0.4276   0.01220   0.00629  -0.0794  0.8137  0.0302  -3.9959   0.0000   0.0000   0.0000   0.0517
  -7.000  -0.3997   0.01194   0.00599  -0.0794  0.8105  0.0313  -3.7996   0.0000   0.0000   0.0000   0.0386
  -6.750  -0.3713   0.01171   0.00571  -0.0795  0.8071  0.0323  -3.6140   0.0000   0.0000   0.0000   0.0230
  -6.500  -0.3440   0.01121   0.00517  -0.0795  0.8036  0.0339  -3.4437   0.0000   0.0000   0.0000   0.0058
  -6.000  -0.2876   0.01068   0.00460  -0.0796  0.7967  0.0375  -3.1040   0.0000   0.0000   0.0000  -0.0408
  -5.750  -0.2595   0.01037   0.00425  -0.0796  0.7931  0.0399  -2.9452   0.0000   0.0000   0.0000  -0.0714
  -5.500  -0.2311   0.01012   0.00401  -0.0797  0.7895  0.0429  -2.7833   0.0000   0.0000   0.0000  -0.1103
  -5.250  -0.2024   0.00995   0.00380  -0.0798  0.7857  0.0452  -2.6291   0.0000   0.0000   0.0000  -0.1609
  -5.000  -0.1741   0.00967   0.00352  -0.0798  0.7825  0.0491  -2.4849   0.0000   0.0000   0.0000  -0.2266
  -4.750  -0.1452   0.00951   0.00335  -0.0800  0.7781  0.0520  -2.3387   0.0000   0.0000   0.0000  -0.3211
  -4.500  -0.1167   0.00927   0.00311  -0.0801  0.7746  0.0566  -2.1975   0.0000   0.0000   0.0000  -0.4595
  -4.250  -0.0878   0.00910   0.00294  -0.0802  0.7706  0.0615  -2.0572   0.0000   0.0000   0.0000  -0.6918
  -4.000  -0.0591   0.00891   0.00276  -0.0803  0.7665  0.0684  -1.9195   0.0000   0.0000   0.0000  -1.1484
  -3.750  -0.0304   0.00871   0.00261  -0.0804  0.7622  0.0783  -1.7930   0.0000   0.0000   0.0000  -2.4691
  -3.500  -0.0015   0.00854   0.00247  -0.0806  0.7576  0.0895  -1.6684   0.0000   0.0000   0.0000  -53.1745
  -3.250   0.0273   0.00838   0.00233  -0.0807  0.7532  0.1006  -1.5460   0.0000   0.0000   0.0000   3.2681
  -3.000   0.0562   0.00821   0.00221  -0.0808  0.7487  0.1139  -1.4259   0.0000   0.0000   0.0000   1.7173
  -2.750   0.0851   0.00807   0.00211  -0.0810  0.7443  0.1311  -1.3080   0.0000   0.0000   0.0000   1.2186
  -2.500   0.1139   0.00791   0.00200  -0.0812  0.7394  0.1488  -1.1931   0.0000   0.0000   0.0000   0.9732
  -2.250   0.1428   0.00774   0.00192  -0.0813  0.7341  0.1725  -1.0808   0.0000   0.0000   0.0000   0.8271
  -2.000   0.1715   0.00759   0.00183  -0.0815  0.7290  0.1990  -0.9788   0.0000   0.0000   0.0000   0.7300
  -1.750   0.2005   0.00743   0.00177  -0.0816  0.7232  0.2263  -0.8789   0.0000   0.0000   0.0000   0.6608
  -1.500   0.2293   0.00730   0.00170  -0.0818  0.7179  0.2572  -0.7815   0.0000   0.0000   0.0000   0.6091
  -1.250   0.2581   0.00713   0.00165  -0.0820  0.7120  0.2939  -0.7039   0.0000   0.0000   0.0000   0.5690
  -1.000   0.2869   0.00697   0.00161  -0.0822  0.7058  0.3376  -0.6427   0.0000   0.0000   0.0000   0.5370
  -0.750   0.3154   0.00676   0.00157  -0.0823  0.6998  0.3957  -0.6629   0.0000   0.0000   0.0000   0.5110
  -0.500   0.3435   0.00648   0.00155  -0.0825  0.6932  0.4833  -0.6834   0.0000   0.0000   0.0000   0.4895
  -0.250   0.3717   0.00627   0.00154  -0.0826  0.6855  0.5614  -0.7059   0.0000   0.0000   0.0000   0.4710
   0.000   0.3998   0.00610   0.00155  -0.0826  0.6773  0.6298  -0.7316   0.0000   0.0000   0.0000   0.4549
   0.250   0.4277   0.00598   0.00158  -0.0825  0.6686  0.6892  -0.7576   0.0000   0.0000   0.0000   0.4408
   0.500   0.4559   0.00592   0.00160  -0.0824  0.6595  0.7278  -0.7844   0.0000   0.0000   0.0000   0.4284
   0.750   0.4840   0.00589   0.00163  -0.0823  0.6510  0.7622  -0.8113   0.0000   0.0000   0.0000   0.4174
   1.000   0.5119   0.00586   0.00167  -0.0822  0.6424  0.7956  -0.8383   0.0000   0.0000   0.0000   0.4075
   1.250   0.5391   0.00583   0.00171  -0.0818  0.6330  0.8321  -0.8667   0.0000   0.0000   0.0000   0.3985
   1.500   0.5657   0.00582   0.00176  -0.0814  0.6226  0.8643  -0.8948   0.0000   0.0000   0.0000   0.3902
   1.750   0.5917   0.00584   0.00181  -0.0807  0.6112  0.8955  -0.9263   0.0000   0.0000   0.0000   0.3826
   2.000   0.6167   0.00585   0.00186  -0.0799  0.5989  0.9274  -0.9599   0.0000   0.0000   0.0000   0.3753
   2.250   0.6446   0.00590   0.00190  -0.0796  0.5856  0.9630  -0.9962   0.0000   0.0000   0.0000   0.3691
   2.500   0.6819   0.00599   0.00193  -0.0816  0.5709  0.9901  -1.0407   0.0000   0.0000   0.0000   0.3650
   2.750   0.7142   0.00612   0.00199  -0.0826  0.5577  1.0000  -1.0823   0.0000   0.0000   0.0000   0.3607
   3.000   0.7417   0.00625   0.00206  -0.0826  0.5444  1.0000  -1.1215   0.0000   0.0000   0.0000   0.3561
   3.250   0.7692   0.00641   0.00215  -0.0825  0.5309  1.0000  -1.1629   0.0000   0.0000   0.0000   0.3518
   3.500   0.7967   0.00657   0.00225  -0.0825  0.5170  1.0000  -1.2091   0.0000   0.0000   0.0000   0.3478
   3.750   0.8239   0.00675   0.00236  -0.0824  0.5022  1.0000  -1.2555   0.0000   0.0000   0.0000   0.3440
   4.000   0.8510   0.00694   0.00248  -0.0823  0.4854  1.0000  -1.3022   0.0000   0.0000   0.0000   0.3404
   4.250   0.8781   0.00714   0.00260  -0.0822  0.4692  1.0000  -1.3529   0.0000   0.0000   0.0000   0.3371
   4.500   0.9050   0.00734   0.00274  -0.0821  0.4541  1.0000  -1.4068   0.0000   0.0000   0.0000   0.3339
   4.750   0.9317   0.00757   0.00290  -0.0820  0.4376  1.0000  -1.4635   0.0000   0.0000   0.0000   0.3309
   5.250   0.9846   0.00806   0.00324  -0.0817  0.4030  1.0000  -1.5925   0.0000   0.0000   0.0000   0.3253
   5.500   1.0107   0.00833   0.00343  -0.0815  0.3853  1.0000  -1.6606   0.0000   0.0000   0.0000   0.3226
   5.750   1.0364   0.00862   0.00364  -0.0813  0.3668  1.0000  -1.7290   0.0000   0.0000   0.0000   0.3201
   6.000   1.0619   0.00893   0.00386  -0.0810  0.3478  1.0000  -1.8000   0.0000   0.0000   0.0000   0.3177
   6.250   1.0872   0.00924   0.00410  -0.0807  0.3300  1.0000  -1.8830   0.0000   0.0000   0.0000   0.3153
   6.500   1.1120   0.00959   0.00435  -0.0803  0.3115  1.0000  -1.9857   0.0000   0.0000   0.0000   0.3130
   6.750   1.1365   0.00996   0.00463  -0.0799  0.2918  1.0000  -2.0892   0.0000   0.0000   0.0000   0.3108
   7.000   1.1608   0.01033   0.00491  -0.0795  0.2740  1.0000  -2.1940   0.0000   0.0000   0.0000   0.3086
   7.250   1.1848   0.01070   0.00521  -0.0791  0.2577  1.0000  -2.3000   0.0000   0.0000   0.0000   0.3065
   7.500   1.2081   0.01112   0.00554  -0.0785  0.2394  1.0000  -2.4130   0.0000   0.0000   0.0000   0.3044
   7.750   1.2308   0.01157   0.00589  -0.0779  0.2215  1.0000  -2.5387   0.0000   0.0000   0.0000   0.3024
   8.000   1.2535   0.01200   0.00625  -0.0773  0.2050  1.0000  -2.6664   0.0000   0.0000   0.0000   0.3004
   8.250   1.2756   0.01246   0.00662  -0.0766  0.1888  1.0000  -2.7945   0.0000   0.0000   0.0000   0.2984
   8.500   1.2972   0.01292   0.00701  -0.0758  0.1755  1.0000  -2.9236   0.0000   0.0000   0.0000   0.2965
   8.750   1.3189   0.01337   0.00741  -0.0750  0.1637  1.0000  -3.0546   0.0000   0.0000   0.0000   0.2946
   9.000   1.3397   0.01384   0.00783  -0.0742  0.1529  1.0000  -3.1853   0.0000   0.0000   0.0000   0.2927
   9.250   1.3599   0.01432   0.00828  -0.0732  0.1429  1.0000  -3.3161   0.0000   0.0000   0.0000   0.2908
   9.500   1.3784   0.01482   0.00874  -0.0720  0.1332  1.0000  -3.4438   0.0000   0.0000   0.0000   0.2888
   9.750   1.3956   0.01536   0.00924  -0.0706  0.1238  1.0000  -3.5692   0.0000   0.0000   0.0000   0.2867
  10.000   1.4124   0.01595   0.00979  -0.0692  0.1145  1.0000  -3.6951   0.0000   0.0000   0.0000   0.2848
  10.250   1.4286   0.01659   0.01039  -0.0678  0.1059  1.0000  -3.8203   0.0000   0.0000   0.0000   0.2828
  10.500   1.4441   0.01728   0.01106  -0.0664  0.0978  1.0000  -3.9449   0.0000   0.0000   0.0000   0.2810
  10.750   1.4590   0.01804   0.01180  -0.0650  0.0906  1.0000  -4.0685   0.0000   0.0000   0.0000   0.2791
  11.000   1.4746   0.01877   0.01252  -0.0638  0.0840  1.0000  -4.1957   0.0000   0.0000   0.0000   0.2774
  11.250   1.4895   0.01957   0.01331  -0.0626  0.0780  1.0000  -4.3215   0.0000   0.0000   0.0000   0.2757
  11.500   1.5036   0.02044   0.01417  -0.0613  0.0725  1.0000  -4.4458   0.0000   0.0000   0.0000   0.2740
  11.750   1.5163   0.02142   0.01513  -0.0599  0.0669  1.0000  -4.5665   0.0000   0.0000   0.0000   0.2723
  12.000   1.5302   0.02232   0.01606  -0.0588  0.0621  1.0000  -4.6919   0.0000   0.0000   0.0000   0.2708
  12.250   1.5425   0.02336   0.01710  -0.0575  0.0576  1.0000  -4.8144   0.0000   0.0000   0.0000   0.2692
  12.500   1.5535   0.02451   0.01824  -0.0562  0.0532  1.0000  -4.9381   0.0000   0.0000   0.0000   0.2676
  12.750   1.5653   0.02561   0.01936  -0.0550  0.0495  1.0000  -5.0654   0.0000   0.0000   0.0000   0.2661
  13.000   1.5743   0.02695   0.02071  -0.0536  0.0458  1.0000  -5.1827   0.0000   0.0000   0.0000   0.2645
  13.250   1.5853   0.02815   0.02195  -0.0524  0.0430  1.0000  -5.3080   0.0000   0.0000   0.0000   0.2631
  13.500   1.5933   0.02960   0.02341  -0.0512  0.0402  1.0000  -5.4231   0.0000   0.0000   0.0000   0.2616
  13.750   1.6014   0.03108   0.02493  -0.0499  0.0379  1.0000  -5.5375   0.0000   0.0000   0.0000   0.2602
  14.000   1.6097   0.03257   0.02646  -0.0488  0.0361  1.0000  -5.6640   0.0000   0.0000   0.0000   0.2588
  14.250   1.6148   0.03434   0.02826  -0.0476  0.0343  1.0000  -5.7793   0.0000   0.0000   0.0000   0.2574
  14.500   1.6184   0.03631   0.03028  -0.0464  0.0327  1.0000  -5.8888   0.0000   0.0000   0.0000   0.2561
  14.750   1.6263   0.03791   0.03196  -0.0455  0.0317  1.0000  -6.0633   0.0000   0.0000   0.0000   0.2549
  15.000   1.6320   0.03976   0.03387  -0.0446  0.0305  1.0000  -6.2272   0.0000   0.0000   0.0000   0.2537
  15.250   1.6357   0.04187   0.03603  -0.0437  0.0295  1.0000  -6.3808   0.0000   0.0000   0.0000   0.2526
  15.500   1.6365   0.04434   0.03855  -0.0429  0.0285  1.0000  -6.5174   0.0000   0.0000   0.0000   0.2515
  15.750   1.6339   0.04726   0.04155  -0.0422  0.0275  1.0000  -6.6328   0.0000   0.0000   0.0000   0.2505
  16.000   1.6389   0.04945   0.04382  -0.0417  0.0270  1.0000  -6.7956   0.0000   0.0000   0.0000   0.2496
  16.250   1.6420   0.05190   0.04636  -0.0414  0.0265  1.0000  -6.9481   0.0000   0.0000   0.0000   0.2488
  16.500   1.6436   0.05456   0.04910  -0.0411  0.0259  1.0000  -7.0926   0.0000   0.0000   0.0000   0.2480
  16.750   1.6439   0.05744   0.05206  -0.0410  0.0254  1.0000  -7.2291   0.0000   0.0000   0.0000   0.2473
  17.000   1.6426   0.06057   0.05527  -0.0409  0.0248  1.0000  -7.3557   0.0000   0.0000   0.0000   0.2467
  17.250   1.6393   0.06401   0.05879  -0.0410  0.0243  1.0000  -7.4692   0.0000   0.0000   0.0000   0.2462
  17.500   1.6334   0.06788   0.06274  -0.0413  0.0238  1.0000  -7.5636   0.0000   0.0000   0.0000   0.2458
  17.750   1.6237   0.07232   0.06727  -0.0418  0.0233  1.0000  -7.6302   0.0000   0.0000   0.0000   0.2457
  18.000   1.6101   0.07740   0.07246  -0.0426  0.0229  1.0000  -7.6663   0.0000   0.0000   0.0000   0.2458
  18.250   1.6067   0.08116   0.07631  -0.0433  0.0226  1.0000  -7.7745   0.0000   0.0000   0.0000   0.2456
  18.500   1.6027   0.08504   0.08030  -0.0441  0.0224  1.0000  -7.8776   0.0000   0.0000   0.0000   0.2455
  18.750   1.5972   0.08918   0.08453  -0.0450  0.0222  1.0000  -7.9692   0.0000   0.0000   0.0000   0.2456
  19.000   1.5905   0.09354   0.08900  -0.0461  0.0219  1.0000  -8.0495   0.0000   0.0000   0.0000   0.2458
  19.250   1.5829   0.09810   0.09366  -0.0474  0.0217  1.0000  -8.1206   0.0000   0.0000   0.0000   0.2461
  19.500   1.5748   0.10279   0.09845  -0.0489  0.0214  1.0000  -8.1852   0.0000   0.0000   0.0000   0.2465
  19.750   1.5663   0.10757   0.10333  -0.0505  0.0212  1.0000  -8.2444   0.0000   0.0000   0.0000   0.2471
  20.000   1.5580   0.11240   0.10826  -0.0523  0.0210  1.0000  -8.3009   0.0000   0.0000   0.0000   0.2478


