xflr5 v6.61

 Calculated polar for: QX0126

 1 1 Reynolds number fixed          Mach number fixed         

 xtrf =   1.000 (top)        1.000 (bottom)
 Mach =   0.000     Re =     0.680 e 6     Ncrit =   9.000

  alpha     CL        CD       CDp       Cm    Top Xtr Bot Xtr   Cpmin    Chinge    XCp    
 ------- -------- --------- --------- -------- ------- ------- -------- --------- ---------
 -10.000  -0.7072   0.01963   0.01431  -0.0818  0.8661  0.0245  -6.2335   0.0000   0.0000   0.0000   0.1212
  -9.750  -0.6821   0.01912   0.01373  -0.0816  0.8626  0.0251  -6.0014   0.0000   0.0000   0.0000   0.1173
  -9.500  -0.6566   0.01855   0.01308  -0.0815  0.8587  0.0258  -5.7759   0.0000   0.0000   0.0000   0.1129
  -9.250  -0.6313   0.01798   0.01240  -0.0814  0.8555  0.0264  -5.5578   0.0000   0.0000   0.0000   0.1083
  -9.000  -0.6052   0.01744   0.01176  -0.0813  0.8519  0.0269  -5.3402   0.0000   0.0000   0.0000   0.1030
  -8.750  -0.5796   0.01679   0.01100  -0.0812  0.8484  0.0275  -5.1317   0.0000   0.0000   0.0000   0.0973
  -8.500  -0.5554   0.01585   0.00999  -0.0809  0.8454  0.0284  -4.9345   0.0000   0.0000   0.0000   0.0917
  -8.250  -0.5286   0.01541   0.00953  -0.0810  0.8415  0.0292  -4.7135   0.0000   0.0000   0.0000   0.0843
  -8.000  -0.5019   0.01499   0.00906  -0.0809  0.8381  0.0301  -4.5101   0.0000   0.0000   0.0000   0.0764
  -7.750  -0.4749   0.01457   0.00857  -0.0808  0.8346  0.0309  -4.3127   0.0000   0.0000   0.0000   0.0673
  -7.500  -0.4476   0.01418   0.00811  -0.0808  0.8309  0.0318  -4.1175   0.0000   0.0000   0.0000   0.0569
  -7.250  -0.4201   0.01390   0.00774  -0.0807  0.8279  0.0325  -3.9215   0.0000   0.0000   0.0000   0.0452
  -7.000  -0.3942   0.01311   0.00694  -0.0806  0.8239  0.0341  -3.7477   0.0000   0.0000   0.0000   0.0326
  -6.750  -0.3668   0.01276   0.00655  -0.0806  0.8204  0.0354  -3.5681   0.0000   0.0000   0.0000   0.0172
  -6.500  -0.3390   0.01244   0.00619  -0.0806  0.8170  0.0369  -3.3926   0.0000   0.0000   0.0000  -0.0011
  -6.250  -0.3108   0.01218   0.00587  -0.0806  0.8133  0.0383  -3.2209   0.0000   0.0000   0.0000  -0.0231
  -6.000  -0.2839   0.01165   0.00532  -0.0805  0.8102  0.0409  -3.0701   0.0000   0.0000   0.0000  -0.0480
  -5.750  -0.2556   0.01139   0.00506  -0.0806  0.8062  0.0435  -2.9088   0.0000   0.0000   0.0000  -0.0803
  -5.500  -0.2276   0.01108   0.00470  -0.0806  0.8025  0.0462  -2.7557   0.0000   0.0000   0.0000  -0.1198
  -5.250  -0.1995   0.01080   0.00442  -0.0806  0.7988  0.0496  -2.6040   0.0000   0.0000   0.0000  -0.1712
  -5.000  -0.1709   0.01060   0.00419  -0.0807  0.7949  0.0527  -2.4606   0.0000   0.0000   0.0000  -0.2407
  -4.750  -0.1428   0.01032   0.00390  -0.0807  0.7917  0.0571  -2.3201   0.0000   0.0000   0.0000  -0.3359
  -4.500  -0.1142   0.01010   0.00368  -0.0808  0.7872  0.0616  -2.1804   0.0000   0.0000   0.0000  -0.4820
  -4.250  -0.0857   0.00989   0.00347  -0.0809  0.7836  0.0675  -2.0423   0.0000   0.0000   0.0000  -0.7235
  -4.000  -0.0571   0.00966   0.00328  -0.0810  0.7795  0.0756  -1.9071   0.0000   0.0000   0.0000  -1.2096
  -3.750  -0.0285   0.00947   0.00310  -0.0811  0.7754  0.0857  -1.7823   0.0000   0.0000   0.0000  -2.6724
  -3.500   0.0001   0.00927   0.00294  -0.0812  0.7711  0.0974  -1.6596   0.0000   0.0000   0.0000  753.0589
  -3.250   0.0287   0.00907   0.00278  -0.0813  0.7665  0.1110  -1.5384   0.0000   0.0000   0.0000   3.1425
  -3.000   0.0574   0.00890   0.00266  -0.0814  0.7620  0.1279  -1.4191   0.0000   0.0000   0.0000   1.6960
  -2.750   0.0861   0.00871   0.00253  -0.0815  0.7574  0.1453  -1.3027   0.0000   0.0000   0.0000   1.2138
  -2.500   0.1148   0.00853   0.00242  -0.0817  0.7529  0.1673  -1.1886   0.0000   0.0000   0.0000   0.9725
  -2.250   0.1435   0.00835   0.00232  -0.0818  0.7481  0.1947  -1.0781   0.0000   0.0000   0.0000   0.8277
  -2.000   0.1722   0.00817   0.00223  -0.0820  0.7428  0.2232  -0.9766   0.0000   0.0000   0.0000   0.7313
  -1.750   0.2008   0.00800   0.00213  -0.0821  0.7379  0.2555  -0.8775   0.0000   0.0000   0.0000   0.6623
  -1.500   0.2295   0.00781   0.00207  -0.0822  0.7319  0.2928  -0.7806   0.0000   0.0000   0.0000   0.6107
  -1.250   0.2580   0.00762   0.00201  -0.0824  0.7265  0.3400  -0.7029   0.0000   0.0000   0.0000   0.5707
  -1.000   0.2863   0.00738   0.00195  -0.0825  0.7207  0.4001  -0.6418   0.0000   0.0000   0.0000   0.5388
  -0.750   0.3143   0.00707   0.00192  -0.0826  0.7144  0.4882  -0.6617   0.0000   0.0000   0.0000   0.5128
  -0.500   0.3421   0.00683   0.00191  -0.0826  0.7084  0.5719  -0.6822   0.0000   0.0000   0.0000   0.4908
  -0.250   0.3699   0.00663   0.00191  -0.0825  0.7020  0.6416  -0.7044   0.0000   0.0000   0.0000   0.4719
   0.000   0.3976   0.00649   0.00194  -0.0823  0.6943  0.7016  -0.7299   0.0000   0.0000   0.0000   0.4555
   0.250   0.4254   0.00641   0.00195  -0.0821  0.6863  0.7438  -0.7557   0.0000   0.0000   0.0000   0.4411
   0.500   0.4531   0.00635   0.00196  -0.0819  0.6777  0.7787  -0.7822   0.0000   0.0000   0.0000   0.4284
   0.750   0.4804   0.00631   0.00198  -0.0816  0.6687  0.8125  -0.8087   0.0000   0.0000   0.0000   0.4171
   1.000   0.5070   0.00627   0.00201  -0.0810  0.6601  0.8479  -0.8349   0.0000   0.0000   0.0000   0.4068
   1.250   0.5329   0.00624   0.00205  -0.0803  0.6516  0.8820  -0.8624   0.0000   0.0000   0.0000   0.3974
   1.500   0.5581   0.00623   0.00208  -0.0794  0.6426  0.9146  -0.8897   0.0000   0.0000   0.0000   0.3887
   1.750   0.5846   0.00623   0.00210  -0.0788  0.6326  0.9485  -0.9212   0.0000   0.0000   0.0000   0.3809
   2.000   0.6198   0.00628   0.00210  -0.0802  0.6213  0.9785  -0.9619   0.0000   0.0000   0.0000   0.3752
   2.250   0.6594   0.00634   0.00212  -0.0827  0.6080  1.0000  -1.0068   0.0000   0.0000   0.0000   0.3710
   2.500   0.6865   0.00646   0.00216  -0.0826  0.5948  1.0000  -1.0437   0.0000   0.0000   0.0000   0.3656
   2.750   0.7138   0.00658   0.00222  -0.0825  0.5814  1.0000  -1.0815   0.0000   0.0000   0.0000   0.3606
   3.000   0.7412   0.00672   0.00229  -0.0824  0.5684  1.0000  -1.1205   0.0000   0.0000   0.0000   0.3560
   3.250   0.7685   0.00686   0.00237  -0.0823  0.5553  1.0000  -1.1616   0.0000   0.0000   0.0000   0.3516
   3.500   0.7958   0.00702   0.00247  -0.0822  0.5415  1.0000  -1.2075   0.0000   0.0000   0.0000   0.3476
   3.750   0.8230   0.00719   0.00258  -0.0821  0.5276  1.0000  -1.2538   0.0000   0.0000   0.0000   0.3438
   4.000   0.8499   0.00738   0.00270  -0.0820  0.5128  1.0000  -1.3004   0.0000   0.0000   0.0000   0.3402
   4.250   0.8768   0.00758   0.00283  -0.0819  0.4963  1.0000  -1.3510   0.0000   0.0000   0.0000   0.3368
   4.500   0.9034   0.00779   0.00297  -0.0817  0.4799  1.0000  -1.4044   0.0000   0.0000   0.0000   0.3336
   4.750   0.9299   0.00802   0.00313  -0.0816  0.4644  1.0000  -1.4606   0.0000   0.0000   0.0000   0.3306
   5.250   0.9824   0.00851   0.00349  -0.0811  0.4305  1.0000  -1.5881   0.0000   0.0000   0.0000   0.3249
   5.500   1.0082   0.00878   0.00368  -0.0809  0.4129  1.0000  -1.6559   0.0000   0.0000   0.0000   0.3222
   5.750   1.0338   0.00907   0.00389  -0.0806  0.3950  1.0000  -1.7241   0.0000   0.0000   0.0000   0.3197
   6.000   1.0590   0.00938   0.00413  -0.0803  0.3765  1.0000  -1.7945   0.0000   0.0000   0.0000   0.3172
   6.250   1.0839   0.00971   0.00438  -0.0799  0.3575  1.0000  -1.8733   0.0000   0.0000   0.0000   0.3148
   6.500   1.1085   0.01005   0.00464  -0.0795  0.3393  1.0000  -1.9748   0.0000   0.0000   0.0000   0.3125
   6.750   1.1327   0.01042   0.00493  -0.0791  0.3207  1.0000  -2.0776   0.0000   0.0000   0.0000   0.3103
   7.000   1.1564   0.01082   0.00523  -0.0786  0.3010  1.0000  -2.1810   0.0000   0.0000   0.0000   0.3081
   7.250   1.1799   0.01122   0.00556  -0.0781  0.2826  1.0000  -2.2856   0.0000   0.0000   0.0000   0.3059
   7.500   1.2031   0.01163   0.00589  -0.0775  0.2660  1.0000  -2.3948   0.0000   0.0000   0.0000   0.3038
   7.750   1.2255   0.01208   0.00626  -0.0768  0.2484  1.0000  -2.5194   0.0000   0.0000   0.0000   0.3018
   8.000   1.2474   0.01255   0.00664  -0.0761  0.2309  1.0000  -2.6444   0.0000   0.0000   0.0000   0.2998
   8.250   1.2688   0.01304   0.00705  -0.0753  0.2140  1.0000  -2.7702   0.0000   0.0000   0.0000   0.2977
   8.500   1.2897   0.01354   0.00747  -0.0744  0.1974  1.0000  -2.8966   0.0000   0.0000   0.0000   0.2957
   8.750   1.3099   0.01406   0.00792  -0.0735  0.1831  1.0000  -3.0229   0.0000   0.0000   0.0000   0.2938
   9.000   1.3298   0.01457   0.00838  -0.0725  0.1703  1.0000  -3.1502   0.0000   0.0000   0.0000   0.2918
   9.250   1.3478   0.01511   0.00887  -0.0712  0.1593  1.0000  -3.2741   0.0000   0.0000   0.0000   0.2897
   9.500   1.3646   0.01568   0.00939  -0.0697  0.1494  1.0000  -3.3962   0.0000   0.0000   0.0000   0.2876
   9.750   1.3817   0.01625   0.00995  -0.0684  0.1398  1.0000  -3.5202   0.0000   0.0000   0.0000   0.2856
  10.000   1.3982   0.01688   0.01056  -0.0670  0.1302  1.0000  -3.6441   0.0000   0.0000   0.0000   0.2837
  10.250   1.4141   0.01757   0.01121  -0.0657  0.1210  1.0000  -3.7675   0.0000   0.0000   0.0000   0.2818
  10.500   1.4294   0.01831   0.01193  -0.0644  0.1121  1.0000  -3.8900   0.0000   0.0000   0.0000   0.2800
  10.750   1.4440   0.01912   0.01272  -0.0631  0.1037  1.0000  -4.0117   0.0000   0.0000   0.0000   0.2782
  11.000   1.4581   0.01998   0.01356  -0.0617  0.0960  1.0000  -4.1325   0.0000   0.0000   0.0000   0.2764
  11.250   1.4715   0.02090   0.01446  -0.0604  0.0892  1.0000  -4.2525   0.0000   0.0000   0.0000   0.2747
  11.500   1.4843   0.02188   0.01543  -0.0591  0.0825  1.0000  -4.3713   0.0000   0.0000   0.0000   0.2730
  11.750   1.4975   0.02285   0.01640  -0.0578  0.0766  1.0000  -4.4921   0.0000   0.0000   0.0000   0.2714
  12.000   1.5100   0.02389   0.01745  -0.0566  0.0712  1.0000  -4.6113   0.0000   0.0000   0.0000   0.2698
  12.250   1.5208   0.02507   0.01862  -0.0553  0.0660  1.0000  -4.7255   0.0000   0.0000   0.0000   0.2682
  12.500   1.5316   0.02626   0.01982  -0.0540  0.0612  1.0000  -4.8469   0.0000   0.0000   0.0000   0.2667
  12.750   1.5420   0.02751   0.02110  -0.0528  0.0569  1.0000  -4.9666   0.0000   0.0000   0.0000   0.2652
  13.000   1.5499   0.02897   0.02255  -0.0514  0.0528  1.0000  -5.0781   0.0000   0.0000   0.0000   0.2636
  13.250   1.5596   0.03031   0.02395  -0.0503  0.0495  1.0000  -5.1963   0.0000   0.0000   0.0000   0.2622
  13.500   1.5659   0.03194   0.02559  -0.0490  0.0463  1.0000  -5.3027   0.0000   0.0000   0.0000   0.2607
  13.750   1.5735   0.03351   0.02722  -0.0478  0.0437  1.0000  -5.4127   0.0000   0.0000   0.0000   0.2594
  14.000   1.5799   0.03521   0.02895  -0.0467  0.0413  1.0000  -5.5212   0.0000   0.0000   0.0000   0.2580
  14.250   1.5819   0.03734   0.03111  -0.0455  0.0391  1.0000  -5.6194   0.0000   0.0000   0.0000   0.2567
  14.500   1.5880   0.03913   0.03298  -0.0445  0.0376  1.0000  -5.7358   0.0000   0.0000   0.0000   0.2554
  14.750   1.5928   0.04111   0.03502  -0.0436  0.0362  1.0000  -5.8472   0.0000   0.0000   0.0000   0.2543
  15.000   1.5953   0.04338   0.03734  -0.0428  0.0348  1.0000  -5.9518   0.0000   0.0000   0.0000   0.2532
  15.250   1.5933   0.04620   0.04022  -0.0420  0.0334  1.0000  -6.0661   0.0000   0.0000   0.0000   0.2521
  15.500   1.5939   0.04884   0.04295  -0.0414  0.0325  1.0000  -6.1951   0.0000   0.0000   0.0000   0.2512
  15.750   1.5977   0.05120   0.04539  -0.0410  0.0317  1.0000  -6.3448   0.0000   0.0000   0.0000   0.2503
  16.000   1.5995   0.05384   0.04812  -0.0407  0.0308  1.0000  -6.4831   0.0000   0.0000   0.0000   0.2495
  16.250   1.5997   0.05673   0.05109  -0.0405  0.0301  1.0000  -6.6121   0.0000   0.0000   0.0000   0.2488
  16.500   1.5978   0.05994   0.05438  -0.0405  0.0294  1.0000  -6.7285   0.0000   0.0000   0.0000   0.2483
  16.750   1.5931   0.06357   0.05808  -0.0406  0.0287  1.0000  -6.8264   0.0000   0.0000   0.0000   0.2478
  17.000   1.5845   0.06778   0.06240  -0.0409  0.0281  1.0000  -6.8974   0.0000   0.0000   0.0000   0.2475
  17.250   1.5720   0.07260   0.06731  -0.0414  0.0275  1.0000  -6.9396   0.0000   0.0000   0.0000   0.2475
  17.500   1.5707   0.07604   0.07085  -0.0419  0.0272  1.0000  -7.0563   0.0000   0.0000   0.0000   0.2472
  17.750   1.5678   0.07972   0.07465  -0.0425  0.0268  1.0000  -7.1619   0.0000   0.0000   0.0000   0.2470
  18.000   1.5635   0.08365   0.07867  -0.0433  0.0264  1.0000  -7.2575   0.0000   0.0000   0.0000   0.2469
  18.250   1.5583   0.08777   0.08290  -0.0442  0.0261  1.0000  -7.3450   0.0000   0.0000   0.0000   0.2470
  18.500   1.5523   0.09204   0.08727  -0.0452  0.0257  1.0000  -7.4259   0.0000   0.0000   0.0000   0.2472
  18.750   1.5458   0.09644   0.09176  -0.0464  0.0253  1.0000  -7.5015   0.0000   0.0000   0.0000   0.2474
  19.000   1.5390   0.10092   0.09634  -0.0478  0.0250  1.0000  -7.5734   0.0000   0.0000   0.0000   0.2478
  19.250   1.5320   0.10550   0.10101  -0.0493  0.0247  1.0000  -7.6403   0.0000   0.0000   0.0000   0.2483
  19.500   1.5245   0.11020   0.10578  -0.0510  0.0243  1.0000  -7.7012   0.0000   0.0000   0.0000   0.2490
  19.750   1.5166   0.11499   0.11065  -0.0528  0.0240  1.0000  -7.7554   0.0000   0.0000   0.0000   0.2497
  20.000   1.5082   0.11987   0.11561  -0.0548  0.0237  1.0000  -7.8016   0.0000   0.0000   0.0000   0.2506


