xflr5 v6.61

 Calculated polar for: QX0126

 1 1 Reynolds number fixed          Mach number fixed         

 xtrf =   1.000 (top)        1.000 (bottom)
 Mach =   0.000     Re =     0.700 e 6     Ncrit =   9.000

  alpha     CL        CD       CDp       Cm    Top Xtr Bot Xtr   Cpmin    Chinge    XCp    
 ------- -------- --------- --------- -------- ------- ------- -------- --------- ---------
 -10.000  -0.7096   0.01922   0.01388  -0.0814  0.8644  0.0243  -6.2633   0.0000   0.0000   0.0000   0.1221
  -9.750  -0.6840   0.01873   0.01334  -0.0814  0.8605  0.0249  -6.0263   0.0000   0.0000   0.0000   0.1180
  -9.500  -0.6585   0.01821   0.01274  -0.0813  0.8569  0.0255  -5.7973   0.0000   0.0000   0.0000   0.1137
  -9.250  -0.6329   0.01767   0.01209  -0.0811  0.8538  0.0262  -5.5762   0.0000   0.0000   0.0000   0.1090
  -9.000  -0.6068   0.01712   0.01146  -0.0811  0.8501  0.0267  -5.3575   0.0000   0.0000   0.0000   0.1037
  -8.750  -0.5803   0.01670   0.01093  -0.0810  0.8469  0.0272  -5.1375   0.0000   0.0000   0.0000   0.0979
  -8.500  -0.5563   0.01565   0.00981  -0.0808  0.8434  0.0281  -4.9465   0.0000   0.0000   0.0000   0.0922
  -8.250  -0.5299   0.01516   0.00929  -0.0807  0.8398  0.0289  -4.7283   0.0000   0.0000   0.0000   0.0851
  -8.000  -0.5032   0.01477   0.00884  -0.0806  0.8367  0.0297  -4.5235   0.0000   0.0000   0.0000   0.0773
  -7.750  -0.4759   0.01435   0.00837  -0.0806  0.8328  0.0306  -4.3235   0.0000   0.0000   0.0000   0.0680
  -7.500  -0.4487   0.01396   0.00792  -0.0806  0.8294  0.0315  -4.1277   0.0000   0.0000   0.0000   0.0579
  -7.250  -0.4210   0.01369   0.00757  -0.0805  0.8261  0.0323  -3.9301   0.0000   0.0000   0.0000   0.0460
  -7.000  -0.3949   0.01297   0.00682  -0.0804  0.8222  0.0338  -3.7553   0.0000   0.0000   0.0000   0.0334
  -6.750  -0.3676   0.01260   0.00641  -0.0804  0.8191  0.0351  -3.5760   0.0000   0.0000   0.0000   0.0182
  -6.500  -0.3396   0.01227   0.00606  -0.0804  0.8153  0.0366  -3.3988   0.0000   0.0000   0.0000  -0.0002
  -6.250  -0.3116   0.01201   0.00573  -0.0804  0.8118  0.0380  -3.2274   0.0000   0.0000   0.0000  -0.0219
  -6.000  -0.2844   0.01153   0.00522  -0.0804  0.8087  0.0405  -3.0753   0.0000   0.0000   0.0000  -0.0470
  -5.750  -0.2561   0.01126   0.00495  -0.0805  0.8046  0.0431  -2.9134   0.0000   0.0000   0.0000  -0.0791
  -5.500  -0.2280   0.01101   0.00464  -0.0805  0.8012  0.0456  -2.7578   0.0000   0.0000   0.0000  -0.1186
  -5.250  -0.1999   0.01068   0.00434  -0.0805  0.7971  0.0492  -2.6076   0.0000   0.0000   0.0000  -0.1698
  -5.000  -0.1713   0.01051   0.00412  -0.0806  0.7935  0.0521  -2.4627   0.0000   0.0000   0.0000  -0.2390
  -4.750  -0.1431   0.01021   0.00383  -0.0806  0.7899  0.0565  -2.3227   0.0000   0.0000   0.0000  -0.3342
  -4.500  -0.1144   0.01002   0.00362  -0.0807  0.7857  0.0608  -2.1821   0.0000   0.0000   0.0000  -0.4794
  -4.250  -0.0861   0.00979   0.00339  -0.0808  0.7823  0.0669  -2.0443   0.0000   0.0000   0.0000  -0.7184
  -4.000  -0.0574   0.00956   0.00321  -0.0809  0.7779  0.0749  -1.9087   0.0000   0.0000   0.0000  -1.2010
  -3.750  -0.0288   0.00939   0.00304  -0.0810  0.7742  0.0849  -1.7836   0.0000   0.0000   0.0000  -2.6417
  -3.500  -0.0001   0.00918   0.00288  -0.0811  0.7694  0.0964  -1.6606   0.0000   0.0000   0.0000  -1081.4143
  -3.250   0.0285   0.00899   0.00272  -0.0812  0.7652  0.1097  -1.5394   0.0000   0.0000   0.0000   3.1626
  -3.000   0.0573   0.00881   0.00261  -0.0813  0.7603  0.1264  -1.4200   0.0000   0.0000   0.0000   1.6990
  -2.750   0.0859   0.00863   0.00247  -0.0814  0.7562  0.1436  -1.3034   0.0000   0.0000   0.0000   1.2147
  -2.500   0.1147   0.00845   0.00237  -0.0816  0.7512  0.1651  -1.1892   0.0000   0.0000   0.0000   0.9725
  -2.250   0.1434   0.00828   0.00226  -0.0817  0.7469  0.1923  -1.0785   0.0000   0.0000   0.0000   0.8277
  -2.000   0.1721   0.00810   0.00218  -0.0819  0.7412  0.2204  -0.9769   0.0000   0.0000   0.0000   0.7311
  -1.750   0.2008   0.00793   0.00209  -0.0820  0.7360  0.2520  -0.8776   0.0000   0.0000   0.0000   0.6621
  -1.500   0.2294   0.00775   0.00202  -0.0822  0.7304  0.2882  -0.7808   0.0000   0.0000   0.0000   0.6105
  -1.250   0.2580   0.00755   0.00196  -0.0823  0.7247  0.3342  -0.7030   0.0000   0.0000   0.0000   0.5705
  -1.000   0.2864   0.00734   0.00190  -0.0824  0.7192  0.3915  -0.6419   0.0000   0.0000   0.0000   0.5385
  -0.750   0.3144   0.00703   0.00187  -0.0826  0.7128  0.4768  -0.6618   0.0000   0.0000   0.0000   0.5126
  -0.500   0.3423   0.00677   0.00187  -0.0826  0.7065  0.5631  -0.6824   0.0000   0.0000   0.0000   0.4907
  -0.250   0.3702   0.00658   0.00187  -0.0825  0.7000  0.6327  -0.7046   0.0000   0.0000   0.0000   0.4718
   0.000   0.3979   0.00645   0.00188  -0.0823  0.6928  0.6948  -0.7301   0.0000   0.0000   0.0000   0.4554
   0.250   0.4257   0.00635   0.00190  -0.0822  0.6846  0.7379  -0.7559   0.0000   0.0000   0.0000   0.4411
   0.500   0.4534   0.00630   0.00191  -0.0819  0.6759  0.7731  -0.7825   0.0000   0.0000   0.0000   0.4284
   0.750   0.4809   0.00626   0.00193  -0.0816  0.6669  0.8066  -0.8090   0.0000   0.0000   0.0000   0.4171
   1.250   0.5337   0.00619   0.00201  -0.0805  0.6496  0.8765  -0.8630   0.0000   0.0000   0.0000   0.3976
   1.500   0.5591   0.00618   0.00204  -0.0797  0.6405  0.9086  -0.8903   0.0000   0.0000   0.0000   0.3889
   1.750   0.5847   0.00618   0.00206  -0.0789  0.6305  0.9427  -0.9213   0.0000   0.0000   0.0000   0.3810
   2.000   0.6182   0.00622   0.00207  -0.0799  0.6190  0.9738  -0.9608   0.0000   0.0000   0.0000   0.3750
   2.250   0.6577   0.00628   0.00209  -0.0823  0.6055  0.9971  -1.0055   0.0000   0.0000   0.0000   0.3708
   2.500   0.6865   0.00640   0.00213  -0.0826  0.5922  1.0000  -1.0438   0.0000   0.0000   0.0000   0.3656
   2.750   0.7139   0.00652   0.00219  -0.0825  0.5786  1.0000  -1.0816   0.0000   0.0000   0.0000   0.3606
   3.000   0.7412   0.00666   0.00226  -0.0824  0.5660  1.0000  -1.1206   0.0000   0.0000   0.0000   0.3560
   3.250   0.7686   0.00680   0.00234  -0.0823  0.5524  1.0000  -1.1618   0.0000   0.0000   0.0000   0.3517
   3.750   0.8231   0.00713   0.00255  -0.0822  0.5247  1.0000  -1.2541   0.0000   0.0000   0.0000   0.3438
   4.000   0.8501   0.00732   0.00267  -0.0820  0.5099  1.0000  -1.3006   0.0000   0.0000   0.0000   0.3402
   4.500   0.9036   0.00774   0.00294  -0.0818  0.4769  1.0000  -1.4047   0.0000   0.0000   0.0000   0.3336
   4.750   0.9302   0.00796   0.00310  -0.0816  0.4614  1.0000  -1.4610   0.0000   0.0000   0.0000   0.3306
   5.000   0.9566   0.00819   0.00327  -0.0814  0.4448  1.0000  -1.5238   0.0000   0.0000   0.0000   0.3277
   5.250   0.9826   0.00845   0.00346  -0.0812  0.4275  1.0000  -1.5887   0.0000   0.0000   0.0000   0.3249
   5.500   1.0085   0.00872   0.00365  -0.0810  0.4100  1.0000  -1.6564   0.0000   0.0000   0.0000   0.3223
   5.750   1.0341   0.00902   0.00386  -0.0807  0.3920  1.0000  -1.7246   0.0000   0.0000   0.0000   0.3197
   6.000   1.0593   0.00933   0.00410  -0.0804  0.3734  1.0000  -1.7951   0.0000   0.0000   0.0000   0.3173
   6.250   1.0843   0.00965   0.00434  -0.0800  0.3544  1.0000  -1.8741   0.0000   0.0000   0.0000   0.3149
   6.500   1.1090   0.00999   0.00461  -0.0796  0.3364  1.0000  -1.9762   0.0000   0.0000   0.0000   0.3126
   6.750   1.1333   0.01036   0.00489  -0.0792  0.3175  1.0000  -2.0792   0.0000   0.0000   0.0000   0.3103
   7.000   1.1571   0.01075   0.00519  -0.0787  0.2978  1.0000  -2.1828   0.0000   0.0000   0.0000   0.3081
   7.250   1.1806   0.01115   0.00551  -0.0782  0.2796  1.0000  -2.2875   0.0000   0.0000   0.0000   0.3060
   7.500   1.2038   0.01156   0.00584  -0.0776  0.2633  1.0000  -2.3973   0.0000   0.0000   0.0000   0.3039
   7.750   1.2263   0.01201   0.00621  -0.0770  0.2455  1.0000  -2.5219   0.0000   0.0000   0.0000   0.3019
   8.000   1.2481   0.01249   0.00660  -0.0762  0.2280  1.0000  -2.6470   0.0000   0.0000   0.0000   0.2998
   8.250   1.2694   0.01299   0.00701  -0.0754  0.2112  1.0000  -2.7725   0.0000   0.0000   0.0000   0.2978
   8.500   1.2904   0.01348   0.00742  -0.0746  0.1947  1.0000  -2.8993   0.0000   0.0000   0.0000   0.2958
   8.750   1.3110   0.01397   0.00786  -0.0737  0.1805  1.0000  -3.0269   0.0000   0.0000   0.0000   0.2939
   9.000   1.3307   0.01450   0.00832  -0.0727  0.1683  1.0000  -3.1539   0.0000   0.0000   0.0000   0.2919
   9.250   1.3493   0.01502   0.00880  -0.0714  0.1575  1.0000  -3.2794   0.0000   0.0000   0.0000   0.2899
   9.500   1.3666   0.01555   0.00930  -0.0700  0.1476  1.0000  -3.4027   0.0000   0.0000   0.0000   0.2878
   9.750   1.3836   0.01613   0.00986  -0.0687  0.1379  1.0000  -3.5267   0.0000   0.0000   0.0000   0.2858
  10.000   1.4001   0.01676   0.01046  -0.0673  0.1284  1.0000  -3.6506   0.0000   0.0000   0.0000   0.2838
  10.250   1.4159   0.01744   0.01111  -0.0660  0.1191  1.0000  -3.7739   0.0000   0.0000   0.0000   0.2820
  10.500   1.4312   0.01819   0.01182  -0.0646  0.1103  1.0000  -3.8965   0.0000   0.0000   0.0000   0.2801
  10.750   1.4458   0.01899   0.01260  -0.0633  0.1020  1.0000  -4.0185   0.0000   0.0000   0.0000   0.2783
  11.000   1.4600   0.01984   0.01343  -0.0620  0.0945  1.0000  -4.1398   0.0000   0.0000   0.0000   0.2766
  11.250   1.4739   0.02073   0.01431  -0.0607  0.0878  1.0000  -4.2613   0.0000   0.0000   0.0000   0.2749
  11.500   1.4869   0.02169   0.01526  -0.0594  0.0814  1.0000  -4.3812   0.0000   0.0000   0.0000   0.2732
  11.750   1.4993   0.02271   0.01627  -0.0581  0.0754  1.0000  -4.4997   0.0000   0.0000   0.0000   0.2715
  12.000   1.5123   0.02371   0.01729  -0.0568  0.0701  1.0000  -4.6206   0.0000   0.0000   0.0000   0.2699
  12.250   1.5237   0.02484   0.01842  -0.0555  0.0651  1.0000  -4.7371   0.0000   0.0000   0.0000   0.2683
  12.500   1.5337   0.02609   0.01966  -0.0542  0.0602  1.0000  -4.8559   0.0000   0.0000   0.0000   0.2668
  12.750   1.5448   0.02728   0.02089  -0.0530  0.0560  1.0000  -4.9784   0.0000   0.0000   0.0000   0.2653
  13.000   1.5525   0.02875   0.02236  -0.0516  0.0520  1.0000  -5.0893   0.0000   0.0000   0.0000   0.2637
  13.250   1.5626   0.03005   0.02371  -0.0505  0.0487  1.0000  -5.2095   0.0000   0.0000   0.0000   0.2623
  13.500   1.5680   0.03177   0.02543  -0.0491  0.0454  1.0000  -5.3118   0.0000   0.0000   0.0000   0.2608
  13.750   1.5773   0.03319   0.02691  -0.0481  0.0430  1.0000  -5.4293   0.0000   0.0000   0.0000   0.2595
  14.000   1.5830   0.03493   0.02868  -0.0469  0.0406  1.0000  -5.5364   0.0000   0.0000   0.0000   0.2581
  14.250   1.5858   0.03698   0.03077  -0.0457  0.0385  1.0000  -5.6381   0.0000   0.0000   0.0000   0.2568
  14.500   1.5926   0.03870   0.03257  -0.0448  0.0371  1.0000  -5.7580   0.0000   0.0000   0.0000   0.2555
  14.750   1.5969   0.04071   0.03464  -0.0438  0.0356  1.0000  -5.8677   0.0000   0.0000   0.0000   0.2543
  15.000   1.5982   0.04308   0.03705  -0.0430  0.0342  1.0000  -5.9761   0.0000   0.0000   0.0000   0.2532
  15.250   1.5948   0.04604   0.04008  -0.0421  0.0328  1.0000  -6.0815   0.0000   0.0000   0.0000   0.2522
  15.500   1.6005   0.04813   0.04226  -0.0416  0.0321  1.0000  -6.2419   0.0000   0.0000   0.0000   0.2512
  15.750   1.6038   0.05053   0.04474  -0.0412  0.0312  1.0000  -6.3893   0.0000   0.0000   0.0000   0.2503
  16.000   1.6054   0.05317   0.04746  -0.0408  0.0304  1.0000  -6.5274   0.0000   0.0000   0.0000   0.2495
  16.250   1.6049   0.05611   0.05048  -0.0406  0.0296  1.0000  -6.6534   0.0000   0.0000   0.0000   0.2488
  16.500   1.6020   0.05944   0.05388  -0.0406  0.0289  1.0000  -6.7638   0.0000   0.0000   0.0000   0.2482
  16.750   1.5953   0.06331   0.05783  -0.0406  0.0282  1.0000  -6.8486   0.0000   0.0000   0.0000   0.2478
  17.000   1.5837   0.06789   0.06252  -0.0410  0.0276  1.0000  -6.8996   0.0000   0.0000   0.0000   0.2476
  17.250   1.5819   0.07133   0.06606  -0.0413  0.0272  1.0000  -7.0138   0.0000   0.0000   0.0000   0.2472
  17.500   1.5798   0.07483   0.06967  -0.0418  0.0269  1.0000  -7.1267   0.0000   0.0000   0.0000   0.2469
  17.750   1.5763   0.07859   0.07353  -0.0424  0.0265  1.0000  -7.2294   0.0000   0.0000   0.0000   0.2468
  18.000   1.5716   0.08255   0.07759  -0.0431  0.0261  1.0000  -7.3233   0.0000   0.0000   0.0000   0.2467
  18.250   1.5661   0.08669   0.08183  -0.0440  0.0257  1.0000  -7.4106   0.0000   0.0000   0.0000   0.2467
  18.500   1.5599   0.09098   0.08621  -0.0450  0.0253  1.0000  -7.4913   0.0000   0.0000   0.0000   0.2469
  18.750   1.5530   0.09542   0.09075  -0.0462  0.0249  1.0000  -7.5653   0.0000   0.0000   0.0000   0.2472
  19.000   1.5455   0.10001   0.09543  -0.0476  0.0246  1.0000  -7.6330   0.0000   0.0000   0.0000   0.2476
  19.250   1.5372   0.10475   0.10026  -0.0491  0.0243  1.0000  -7.6921   0.0000   0.0000   0.0000   0.2481
  19.500   1.5283   0.10965   0.10523  -0.0509  0.0239  1.0000  -7.7428   0.0000   0.0000   0.0000   0.2488
  19.750   1.5188   0.11469   0.11035  -0.0528  0.0236  1.0000  -7.7839   0.0000   0.0000   0.0000   0.2496
  20.000   1.5088   0.11979   0.11553  -0.0549  0.0232  1.0000  -7.8164   0.0000   0.0000   0.0000   0.2506


