xflr5 v6.61

 Calculated polar for: QX0126

 1 1 Reynolds number fixed          Mach number fixed         

 xtrf =   1.000 (top)        1.000 (bottom)
 Mach =   0.000     Re =     0.980 e 6     Ncrit =   9.000

  alpha     CL        CD       CDp       Cm    Top Xtr Bot Xtr   Cpmin    Chinge    XCp    
 ------- -------- --------- --------- -------- ------- ------- -------- --------- ---------
 -10.000  -0.7270   0.01615   0.01086  -0.0792  0.8447  0.0216  -6.4762   0.0000   0.0000   0.0000   0.1281
  -9.750  -0.7005   0.01572   0.01038  -0.0791  0.8412  0.0221  -6.2310   0.0000   0.0000   0.0000   0.1241
  -9.500  -0.6736   0.01538   0.00995  -0.0791  0.8381  0.0225  -5.9861   0.0000   0.0000   0.0000   0.1198
  -9.250  -0.6472   0.01490   0.00940  -0.0790  0.8351  0.0230  -5.7526   0.0000   0.0000   0.0000   0.1153
  -9.000  -0.6220   0.01414   0.00859  -0.0789  0.8316  0.0239  -5.5353   0.0000   0.0000   0.0000   0.1105
  -8.750  -0.5951   0.01376   0.00817  -0.0789  0.8287  0.0245  -5.3006   0.0000   0.0000   0.0000   0.1049
  -8.500  -0.5676   0.01345   0.00782  -0.0789  0.8253  0.0252  -5.0667   0.0000   0.0000   0.0000   0.0985
  -8.250  -0.5399   0.01314   0.00748  -0.0790  0.8218  0.0260  -4.8399   0.0000   0.0000   0.0000   0.0914
  -8.000  -0.5123   0.01286   0.00714  -0.0789  0.8188  0.0267  -4.6265   0.0000   0.0000   0.0000   0.0836
  -7.750  -0.4843   0.01258   0.00681  -0.0790  0.8152  0.0272  -4.4160   0.0000   0.0000   0.0000   0.0745
  -7.500  -0.4576   0.01200   0.00617  -0.0789  0.8118  0.0282  -4.2246   0.0000   0.0000   0.0000   0.0651
  -7.250  -0.4301   0.01165   0.00579  -0.0790  0.8087  0.0292  -4.0229   0.0000   0.0000   0.0000   0.0539
  -7.000  -0.4018   0.01139   0.00553  -0.0790  0.8050  0.0303  -3.8235   0.0000   0.0000   0.0000   0.0406
  -6.750  -0.3736   0.01116   0.00525  -0.0791  0.8019  0.0315  -3.6361   0.0000   0.0000   0.0000   0.0254
  -6.500  -0.3451   0.01096   0.00501  -0.0792  0.7987  0.0324  -3.4516   0.0000   0.0000   0.0000   0.0075
  -6.250  -0.3175   0.01050   0.00453  -0.0792  0.7950  0.0345  -3.2869   0.0000   0.0000   0.0000  -0.0129
  -6.000  -0.2892   0.01028   0.00427  -0.0792  0.7918  0.0364  -3.1192   0.0000   0.0000   0.0000  -0.0379
  -5.750  -0.2604   0.01009   0.00407  -0.0793  0.7877  0.0382  -2.9524   0.0000   0.0000   0.0000  -0.0693
  -5.500  -0.2323   0.00976   0.00374  -0.0794  0.7842  0.0416  -2.7945   0.0000   0.0000   0.0000  -0.1072
  -5.250  -0.2035   0.00958   0.00354  -0.0795  0.7808  0.0442  -2.6393   0.0000   0.0000   0.0000  -0.1571
  -5.000  -0.1749   0.00934   0.00330  -0.0796  0.7768  0.0474  -2.4932   0.0000   0.0000   0.0000  -0.2230
  -4.750  -0.1463   0.00918   0.00311  -0.0797  0.7734  0.0508  -2.3467   0.0000   0.0000   0.0000  -0.3149
  -4.500  -0.1174   0.00898   0.00293  -0.0798  0.7693  0.0546  -2.2035   0.0000   0.0000   0.0000  -0.4535
  -4.250  -0.0886   0.00881   0.00275  -0.0800  0.7656  0.0592  -2.0621   0.0000   0.0000   0.0000  -0.6811
  -4.000  -0.0598   0.00861   0.00258  -0.0801  0.7612  0.0661  -1.9240   0.0000   0.0000   0.0000  -1.1291
  -3.750  -0.0310   0.00844   0.00243  -0.0802  0.7568  0.0753  -1.7967   0.0000   0.0000   0.0000  -2.4090
  -3.500  -0.0020   0.00828   0.00231  -0.0804  0.7522  0.0862  -1.6715   0.0000   0.0000   0.0000  -40.3984
  -3.250   0.0269   0.00813   0.00218  -0.0805  0.7479  0.0970  -1.5487   0.0000   0.0000   0.0000   3.3124
  -3.000   0.0558   0.00797   0.00207  -0.0807  0.7434  0.1088  -1.4281   0.0000   0.0000   0.0000   1.7235
  -2.750   0.0847   0.00783   0.00197  -0.0808  0.7388  0.1252  -1.3101   0.0000   0.0000   0.0000   1.2208
  -2.500   0.1137   0.00768   0.00187  -0.0810  0.7336  0.1425  -1.1947   0.0000   0.0000   0.0000   0.9734
  -2.000   0.1715   0.00737   0.00171  -0.0813  0.7229  0.1896  -0.9793   0.0000   0.0000   0.0000   0.7295
  -1.750   0.2004   0.00724   0.00164  -0.0815  0.7176  0.2153  -0.8794   0.0000   0.0000   0.0000   0.6603
  -1.500   0.2293   0.00710   0.00158  -0.0817  0.7119  0.2447  -0.7819   0.0000   0.0000   0.0000   0.6086
  -1.250   0.2582   0.00695   0.00153  -0.0819  0.7058  0.2777  -0.7041   0.0000   0.0000   0.0000   0.5685
  -1.000   0.2870   0.00681   0.00149  -0.0821  0.6999  0.3177  -0.6430   0.0000   0.0000   0.0000   0.5365
  -0.750   0.3157   0.00664   0.00145  -0.0822  0.6935  0.3650  -0.6633   0.0000   0.0000   0.0000   0.5104
  -0.500   0.3441   0.00639   0.00143  -0.0824  0.6863  0.4425  -0.6839   0.0000   0.0000   0.0000   0.4889
  -0.250   0.3722   0.00615   0.00142  -0.0825  0.6785  0.5277  -0.7064   0.0000   0.0000   0.0000   0.4706
   0.000   0.4005   0.00599   0.00143  -0.0826  0.6700  0.5943  -0.7321   0.0000   0.0000   0.0000   0.4547
   0.250   0.4285   0.00584   0.00146  -0.0826  0.6609  0.6619  -0.7582   0.0000   0.0000   0.0000   0.4407
   0.500   0.4568   0.00578   0.00148  -0.0826  0.6520  0.7054  -0.7851   0.0000   0.0000   0.0000   0.4284
   0.750   0.4851   0.00574   0.00151  -0.0825  0.6437  0.7412  -0.8121   0.0000   0.0000   0.0000   0.4175
   1.000   0.5133   0.00572   0.00155  -0.0825  0.6347  0.7735  -0.8393   0.0000   0.0000   0.0000   0.4077
   1.250   0.5409   0.00569   0.00160  -0.0823  0.6247  0.8101  -0.8679   0.0000   0.0000   0.0000   0.3988
   1.500   0.5680   0.00569   0.00165  -0.0819  0.6134  0.8440  -0.8963   0.0000   0.0000   0.0000   0.3907
   1.750   0.5945   0.00571   0.00170  -0.0815  0.6014  0.8749  -0.9283   0.0000   0.0000   0.0000   0.3831
   2.000   0.6204   0.00573   0.00176  -0.0808  0.5887  0.9047  -0.9626   0.0000   0.0000   0.0000   0.3761
   2.500   0.6760   0.00584   0.00186  -0.0804  0.5614  0.9738  -1.0363   0.0000   0.0000   0.0000   0.3642
   2.750   0.7139   0.00596   0.00191  -0.0826  0.5477  0.9989  -1.0822   0.0000   0.0000   0.0000   0.3607
   3.000   0.7420   0.00609   0.00199  -0.0827  0.5341  1.0000  -1.1219   0.0000   0.0000   0.0000   0.3562
   3.500   0.7970   0.00640   0.00217  -0.0826  0.5064  1.0000  -1.2098   0.0000   0.0000   0.0000   0.3479
   3.750   0.8243   0.00658   0.00228  -0.0825  0.4906  1.0000  -1.2562   0.0000   0.0000   0.0000   0.3441
   4.000   0.8515   0.00678   0.00240  -0.0825  0.4739  1.0000  -1.3029   0.0000   0.0000   0.0000   0.3406
   4.250   0.8786   0.00698   0.00253  -0.0824  0.4585  1.0000  -1.3537   0.0000   0.0000   0.0000   0.3372
   4.500   0.9057   0.00718   0.00266  -0.0823  0.4426  1.0000  -1.4077   0.0000   0.0000   0.0000   0.3341
   4.750   0.9325   0.00741   0.00281  -0.0822  0.4259  1.0000  -1.4648   0.0000   0.0000   0.0000   0.3310
   5.000   0.9591   0.00765   0.00298  -0.0821  0.4088  1.0000  -1.5279   0.0000   0.0000   0.0000   0.3282
   5.250   0.9855   0.00790   0.00315  -0.0819  0.3916  1.0000  -1.5942   0.0000   0.0000   0.0000   0.3254
   5.500   1.0116   0.00817   0.00334  -0.0817  0.3737  1.0000  -1.6623   0.0000   0.0000   0.0000   0.3228
   5.750   1.0375   0.00846   0.00355  -0.0815  0.3546  1.0000  -1.7310   0.0000   0.0000   0.0000   0.3203
   6.000   1.0631   0.00876   0.00377  -0.0813  0.3365  1.0000  -1.8023   0.0000   0.0000   0.0000   0.3178
   6.250   1.0885   0.00908   0.00400  -0.0810  0.3189  1.0000  -1.8870   0.0000   0.0000   0.0000   0.3155
   6.500   1.1134   0.00942   0.00425  -0.0807  0.2992  1.0000  -1.9900   0.0000   0.0000   0.0000   0.3132
   6.750   1.1381   0.00978   0.00451  -0.0803  0.2801  1.0000  -2.0940   0.0000   0.0000   0.0000   0.3110
   7.000   1.1626   0.01013   0.00479  -0.0799  0.2637  1.0000  -2.1994   0.0000   0.0000   0.0000   0.3089
   7.250   1.1866   0.01052   0.00509  -0.0794  0.2467  1.0000  -2.3053   0.0000   0.0000   0.0000   0.3067
   7.500   1.2098   0.01095   0.00542  -0.0789  0.2278  1.0000  -2.4195   0.0000   0.0000   0.0000   0.3047
   7.750   1.2329   0.01137   0.00575  -0.0783  0.2111  1.0000  -2.5462   0.0000   0.0000   0.0000   0.3026
   8.000   1.2557   0.01180   0.00610  -0.0777  0.1945  1.0000  -2.6745   0.0000   0.0000   0.0000   0.3007
   8.250   1.2783   0.01223   0.00646  -0.0771  0.1799  1.0000  -2.8042   0.0000   0.0000   0.0000   0.2987
   8.750   1.3223   0.01311   0.00722  -0.0756  0.1565  1.0000  -3.0665   0.0000   0.0000   0.0000   0.2949
   9.000   1.3437   0.01355   0.00762  -0.0748  0.1465  1.0000  -3.1991   0.0000   0.0000   0.0000   0.2930
   9.250   1.3645   0.01401   0.00804  -0.0740  0.1365  1.0000  -3.3318   0.0000   0.0000   0.0000   0.2912
   9.500   1.3840   0.01450   0.00849  -0.0729  0.1265  1.0000  -3.4629   0.0000   0.0000   0.0000   0.2892
   9.750   1.4012   0.01503   0.00897  -0.0714  0.1170  1.0000  -3.5888   0.0000   0.0000   0.0000   0.2872
  10.000   1.4178   0.01561   0.00951  -0.0700  0.1080  1.0000  -3.7145   0.0000   0.0000   0.0000   0.2852
  10.250   1.4341   0.01622   0.01010  -0.0686  0.0998  1.0000  -3.8406   0.0000   0.0000   0.0000   0.2832
  10.500   1.4502   0.01688   0.01073  -0.0673  0.0925  1.0000  -3.9673   0.0000   0.0000   0.0000   0.2814
  10.750   1.4663   0.01754   0.01139  -0.0660  0.0859  1.0000  -4.0953   0.0000   0.0000   0.0000   0.2796
  11.000   1.4816   0.01828   0.01211  -0.0647  0.0797  1.0000  -4.2219   0.0000   0.0000   0.0000   0.2778
  11.250   1.4961   0.01910   0.01290  -0.0634  0.0739  1.0000  -4.3470   0.0000   0.0000   0.0000   0.2761
  11.500   1.5106   0.01992   0.01372  -0.0621  0.0684  1.0000  -4.4731   0.0000   0.0000   0.0000   0.2744
  11.750   1.5250   0.02077   0.01458  -0.0609  0.0635  1.0000  -4.6001   0.0000   0.0000   0.0000   0.2728
  12.000   1.5377   0.02175   0.01555  -0.0596  0.0587  1.0000  -4.7222   0.0000   0.0000   0.0000   0.2711
  12.250   1.5507   0.02273   0.01653  -0.0584  0.0543  1.0000  -4.8483   0.0000   0.0000   0.0000   0.2695
  12.500   1.5629   0.02377   0.01759  -0.0571  0.0504  1.0000  -4.9769   0.0000   0.0000   0.0000   0.2680
  12.750   1.5737   0.02494   0.01875  -0.0558  0.0466  1.0000  -5.1013   0.0000   0.0000   0.0000   0.2664
  13.000   1.5852   0.02608   0.01992  -0.0546  0.0435  1.0000  -5.2284   0.0000   0.0000   0.0000   0.2649
  13.250   1.5948   0.02737   0.02122  -0.0533  0.0405  1.0000  -5.3497   0.0000   0.0000   0.0000   0.2634
  13.500   1.6040   0.02872   0.02260  -0.0520  0.0380  1.0000  -5.4693   0.0000   0.0000   0.0000   0.2619
  13.750   1.6133   0.03007   0.02399  -0.0509  0.0360  1.0000  -5.5922   0.0000   0.0000   0.0000   0.2605
  14.000   1.6195   0.03171   0.02565  -0.0496  0.0339  1.0000  -5.7122   0.0000   0.0000   0.0000   0.2591
  14.250   1.6264   0.03332   0.02731  -0.0484  0.0324  1.0000  -5.8347   0.0000   0.0000   0.0000   0.2577
  14.500   1.6350   0.03481   0.02886  -0.0474  0.0313  1.0000  -6.0075   0.0000   0.0000   0.0000   0.2564
  14.750   1.6412   0.03654   0.03064  -0.0464  0.0300  1.0000  -6.1749   0.0000   0.0000   0.0000   0.2552
  15.000   1.6449   0.03853   0.03267  -0.0453  0.0289  1.0000  -6.3291   0.0000   0.0000   0.0000   0.2539
  15.250   1.6447   0.04098   0.03517  -0.0442  0.0276  1.0000  -6.4598   0.0000   0.0000   0.0000   0.2527
  15.500   1.6513   0.04283   0.03711  -0.0435  0.0270  1.0000  -6.6330   0.0000   0.0000   0.0000   0.2516
  15.750   1.6568   0.04487   0.03921  -0.0429  0.0264  1.0000  -6.8006   0.0000   0.0000   0.0000   0.2506
  16.000   1.6606   0.04711   0.04153  -0.0423  0.0258  1.0000  -6.9597   0.0000   0.0000   0.0000   0.2496
  16.250   1.6628   0.04958   0.04407  -0.0419  0.0252  1.0000  -7.1102   0.0000   0.0000   0.0000   0.2487
  16.500   1.6634   0.05230   0.04686  -0.0415  0.0246  1.0000  -7.2511   0.0000   0.0000   0.0000   0.2479
  16.750   1.6616   0.05536   0.04999  -0.0412  0.0240  1.0000  -7.3765   0.0000   0.0000   0.0000   0.2472
  17.000   1.6562   0.05895   0.05366  -0.0411  0.0233  1.0000  -7.4767   0.0000   0.0000   0.0000   0.2466
  17.250   1.6490   0.06285   0.05765  -0.0412  0.0228  1.0000  -7.5641   0.0000   0.0000   0.0000   0.2461
  17.500   1.6499   0.06580   0.06070  -0.0413  0.0225  1.0000  -7.7071   0.0000   0.0000   0.0000   0.2456
  17.750   1.6489   0.06905   0.06403  -0.0416  0.0222  1.0000  -7.8373   0.0000   0.0000   0.0000   0.2452
  18.000   1.6462   0.07256   0.06764  -0.0420  0.0219  1.0000  -7.9556   0.0000   0.0000   0.0000   0.2448
  18.250   1.6421   0.07632   0.07149  -0.0425  0.0216  1.0000  -8.0639   0.0000   0.0000   0.0000   0.2446
  18.500   1.6367   0.08031   0.07557  -0.0432  0.0213  1.0000  -8.1619   0.0000   0.0000   0.0000   0.2444
  18.750   1.6302   0.08451   0.07987  -0.0440  0.0210  1.0000  -8.2502   0.0000   0.0000   0.0000   0.2444
  19.000   1.6226   0.08893   0.08439  -0.0450  0.0208  1.0000  -8.3286   0.0000   0.0000   0.0000   0.2445
  19.250   1.6136   0.09359   0.08914  -0.0462  0.0205  1.0000  -8.3953   0.0000   0.0000   0.0000   0.2448
  19.500   1.6039   0.09845   0.09409  -0.0476  0.0203  1.0000  -8.4530   0.0000   0.0000   0.0000   0.2452
  19.750   1.5935   0.10349   0.09922  -0.0492  0.0201  1.0000  -8.5013   0.0000   0.0000   0.0000   0.2457
  20.000   1.5823   0.10869   0.10451  -0.0511  0.0199  1.0000  -8.5399   0.0000   0.0000   0.0000   0.2465


