xflr5 v6.61

 Calculated polar for: QX0226

 1 1 Reynolds number fixed          Mach number fixed         

 xtrf =   1.000 (top)        1.000 (bottom)
 Mach =   0.000     Re =     0.140 e 6     Ncrit =   9.000

  alpha     CL        CD       CDp       Cm    Top Xtr Bot Xtr   Cpmin    Chinge    XCp    
 ------- -------- --------- --------- -------- ------- ------- -------- --------- ---------
  -9.750  -0.1528   0.10459   0.10033  -0.0867  0.9656  0.0873  -1.5316   0.0000   0.0000   0.0000  -0.3621
  -9.500  -0.1382   0.10114   0.09686  -0.0902  0.9620  0.0908  -1.5122   0.0000   0.0000   0.0000  -0.4509
  -9.250  -0.1319   0.09633   0.09206  -0.0971  0.9589  0.0937  -1.5851   0.0000   0.0000   0.0000  -0.5352
  -6.750  -0.1580   0.04646   0.04091  -0.1350  0.8889  0.0785  -2.5844   0.0000   0.0000   0.0000  -0.6372
  -6.500  -0.1458   0.04993   0.04470  -0.1313  0.8820  0.0927  -2.3289   0.0000   0.0000   0.0000  -0.6837
  -6.250  -0.1340   0.03790   0.03132  -0.1352  0.8784  0.0717  -2.6917   0.0000   0.0000   0.0000  -0.7968
  -6.000  -0.1281   0.03616   0.02914  -0.1328  0.8711  0.0719  -2.6848   0.0000   0.0000   0.0000  -0.8247
  -5.750  -0.0961   0.03386   0.02655  -0.1345  0.8687  0.0730  -2.5985   0.0000   0.0000   0.0000  -1.1981
  -5.500  -0.0597   0.03221   0.02469  -0.1365  0.8670  0.0755  -2.4764   0.0000   0.0000   0.0000  -2.1111
  -5.250  -0.0517   0.03157   0.02377  -0.1337  0.8594  0.0771  -2.4327   0.0000   0.0000   0.0000  -2.4223
  -5.000  -0.0156   0.03001   0.02191  -0.1354  0.8573  0.0800  -2.3314   0.0000   0.0000   0.0000  -8.6717
  -4.500   0.0311   0.02871   0.02032  -0.1344  0.8479  0.0869  -2.1454   0.0000   0.0000   0.0000   4.6913
  -4.250   0.0683   0.02781   0.01926  -0.1359  0.8460  0.0926  -2.0253   0.0000   0.0000   0.0000   2.2948
  -4.000   0.0812   0.02774   0.01927  -0.1339  0.8391  0.0966  -1.9457   0.0000   0.0000   0.0000   1.9412
  -3.750   0.1152   0.02701   0.01851  -0.1350  0.8364  0.1040  -1.8289   0.0000   0.0000   0.0000   1.4499
  -3.500   0.1525   0.02622   0.01774  -0.1365  0.8347  0.1143  -1.7024   0.0000   0.0000   0.0000   1.1648
  -3.250   0.1647   0.02640   0.01797  -0.1343  0.8271  0.1224  -1.6335   0.0000   0.0000   0.0000   1.0831
  -3.000   0.2006   0.02572   0.01737  -0.1357  0.8249  0.1404  -1.5174   0.0000   0.0000   0.0000   0.9395
  -2.750   0.2177   0.02582   0.01758  -0.1344  0.8182  0.1600  -1.4373   0.0000   0.0000   0.0000   0.8785
  -2.500   0.2507   0.02525   0.01722  -0.1354  0.8152  0.2016  -1.3259   0.0000   0.0000   0.0000   0.7989
  -2.250   0.2876   0.02455   0.01678  -0.1369  0.8134  0.2662  -1.2067   0.0000   0.0000   0.0000   0.7330
  -2.000   0.3025   0.02487   0.01734  -0.1355  0.8056  0.3169  -1.1284   0.0000   0.0000   0.0000   0.7039
  -1.750   0.3375   0.02427   0.01708  -0.1366  0.8034  0.4033  -1.0112   0.0000   0.0000   0.0000   0.6594
  -1.250   0.3844   0.02405   0.01761  -0.1350  0.7935  0.6059  -0.8310   0.0000   0.0000   0.0000   0.6040
  -1.000   0.4145   0.02356   0.01740  -0.1341  0.7917  0.7127  -0.7340   0.0000   0.0000   0.0000   0.5755
  -0.750   0.4230   0.02413   0.01815  -0.1306  0.7833  0.7801  -0.7367   0.0000   0.0000   0.0000   0.5603
  -0.500   0.4468   0.02362   0.01775  -0.1279  0.7813  0.8593  -0.7559   0.0000   0.0000   0.0000   0.5372
   0.000   0.5048   0.02369   0.01771  -0.1281  0.7712  1.0000  -0.7971   0.0000   0.0000   0.0000   0.5034
   0.500   0.5624   0.02403   0.01779  -0.1289  0.7610  1.0000  -0.8401   0.0000   0.0000   0.0000   0.4779
   1.000   0.6193   0.02428   0.01784  -0.1292  0.7509  1.0000  -0.8860   0.0000   0.0000   0.0000   0.4565
   1.500   0.6765   0.02441   0.01782  -0.1294  0.7408  1.0000  -0.9352   0.0000   0.0000   0.0000   0.4383
   1.750   0.7141   0.02394   0.01726  -0.1304  0.7387  1.0000  -0.9681   0.0000   0.0000   0.0000   0.4292
   2.000   0.7343   0.02442   0.01771  -0.1295  0.7307  1.0000  -0.9884   0.0000   0.0000   0.0000   0.4226
   2.250   0.7702   0.02400   0.01721  -0.1302  0.7279  1.0000  -1.0220   0.0000   0.0000   0.0000   0.4150
   2.500   0.7931   0.02428   0.01747  -0.1295  0.7206  1.0000  -1.0460   0.0000   0.0000   0.0000   0.4089
   2.750   0.8279   0.02387   0.01701  -0.1301  0.7173  1.0000  -1.0805   0.0000   0.0000   0.0000   0.4024
   3.000   0.8530   0.02399   0.01711  -0.1296  0.7105  1.0000  -1.1082   0.0000   0.0000   0.0000   0.3968
   3.250   0.8888   0.02347   0.01656  -0.1303  0.7073  1.0000  -1.1463   0.0000   0.0000   0.0000   0.3911
   3.500   0.9142   0.02353   0.01661  -0.1298  0.7003  1.0000  -1.1763   0.0000   0.0000   0.0000   0.3861
   3.750   0.9539   0.02276   0.01580  -0.1309  0.6980  1.0000  -1.2210   0.0000   0.0000   0.0000   0.3811
   4.750   1.0645   0.02226   0.01533  -0.1297  0.6708  1.0000  -1.3752   0.0000   0.0000   0.0000   0.3643
   5.250   1.1301   0.02139   0.01445  -0.1303  0.6587  1.0000  -1.4753   0.0000   0.0000   0.0000   0.3571
   5.500   1.1556   0.02132   0.01441  -0.1296  0.6500  1.0000  -1.5219   0.0000   0.0000   0.0000   0.3536
   5.750   1.1827   0.02116   0.01427  -0.1292  0.6414  1.0000  -1.5734   0.0000   0.0000   0.0000   0.3503
   6.000   1.2112   0.02092   0.01405  -0.1289  0.6328  1.0000  -1.6318   0.0000   0.0000   0.0000   0.3472
   6.250   1.2398   0.02068   0.01382  -0.1287  0.6236  1.0000  -1.6988   0.0000   0.0000   0.0000   0.3441
   6.500   1.2672   0.02049   0.01365  -0.1282  0.6137  1.0000  -1.7719   0.0000   0.0000   0.0000   0.3412
   6.750   1.2935   0.02037   0.01354  -0.1277  0.6029  1.0000  -1.8512   0.0000   0.0000   0.0000   0.3383
   7.000   1.3193   0.02028   0.01346  -0.1270  0.5915  1.0000  -1.9332   0.0000   0.0000   0.0000   0.3355
   7.250   1.3452   0.02019   0.01338  -0.1264  0.5795  1.0000  -2.0194   0.0000   0.0000   0.0000   0.3328
   7.500   1.3708   0.02016   0.01333  -0.1257  0.5669  1.0000  -2.1092   0.0000   0.0000   0.0000   0.3301
   7.750   1.3891   0.02039   0.01360  -0.1240  0.5520  1.0000  -2.1883   0.0000   0.0000   0.0000   0.3273
   8.000   1.4131   0.02045   0.01361  -0.1231  0.5377  1.0000  -2.2814   0.0000   0.0000   0.0000   0.3248
   8.250   1.4292   0.02078   0.01398  -0.1211  0.5214  1.0000  -2.3609   0.0000   0.0000   0.0000   0.3220
   8.500   1.4480   0.02106   0.01422  -0.1195  0.5053  1.0000  -2.4762   0.0000   0.0000   0.0000   0.3194
   8.750   1.4635   0.02145   0.01458  -0.1175  0.4882  1.0000  -2.5857   0.0000   0.0000   0.0000   0.3167
   9.000   1.4749   0.02196   0.01508  -0.1148  0.4707  1.0000  -2.6857   0.0000   0.0000   0.0000   0.3138
   9.250   1.4862   0.02252   0.01559  -0.1122  0.4535  1.0000  -2.7866   0.0000   0.0000   0.0000   0.3110
   9.500   1.4974   0.02316   0.01617  -0.1097  0.4365  1.0000  -2.8887   0.0000   0.0000   0.0000   0.3084
   9.750   1.5040   0.02401   0.01701  -0.1067  0.4190  1.0000  -2.9787   0.0000   0.0000   0.0000   0.3056
  10.000   1.5112   0.02491   0.01788  -0.1039  0.4019  1.0000  -3.0711   0.0000   0.0000   0.0000   0.3030
  10.250   1.5185   0.02587   0.01878  -0.1013  0.3852  1.0000  -3.1653   0.0000   0.0000   0.0000   0.3005
  10.500   1.5229   0.02701   0.01992  -0.0985  0.3682  1.0000  -3.2539   0.0000   0.0000   0.0000   0.2980
  10.750   1.5273   0.02822   0.02111  -0.0958  0.3517  1.0000  -3.3432   0.0000   0.0000   0.0000   0.2956
  11.000   1.5316   0.02951   0.02235  -0.0933  0.3357  1.0000  -3.4327   0.0000   0.0000   0.0000   0.2933
  11.250   1.5339   0.03097   0.02383  -0.0907  0.3191  1.0000  -3.5158   0.0000   0.0000   0.0000   0.2910
  11.500   1.5362   0.03251   0.02533  -0.0882  0.3033  1.0000  -3.5996   0.0000   0.0000   0.0000   0.2889
  11.750   1.5374   0.03418   0.02698  -0.0858  0.2876  1.0000  -3.6802   0.0000   0.0000   0.0000   0.2867
  12.000   1.5380   0.03597   0.02877  -0.0835  0.2718  1.0000  -3.7584   0.0000   0.0000   0.0000   0.2847
  12.250   1.5378   0.03786   0.03061  -0.0812  0.2570  1.0000  -3.8347   0.0000   0.0000   0.0000   0.2827
  12.500   1.5368   0.03991   0.03267  -0.0791  0.2414  1.0000  -3.9075   0.0000   0.0000   0.0000   0.2809
  12.750   1.5352   0.04206   0.03476  -0.0770  0.2274  1.0000  -3.9785   0.0000   0.0000   0.0000   0.2791
  13.000   1.5332   0.04435   0.03707  -0.0751  0.2126  1.0000  -4.0467   0.0000   0.0000   0.0000   0.2773
  13.250   1.5307   0.04675   0.03939  -0.0732  0.1995  1.0000  -4.1137   0.0000   0.0000   0.0000   0.2757
  13.500   1.5283   0.04929   0.04196  -0.0716  0.1858  1.0000  -4.1813   0.0000   0.0000   0.0000   0.2742
  13.750   1.5255   0.05192   0.04454  -0.0701  0.1737  1.0000  -4.2482   0.0000   0.0000   0.0000   0.2727
  14.000   1.5228   0.05463   0.04722  -0.0686  0.1622  1.0000  -4.3146   0.0000   0.0000   0.0000   0.2713
  14.250   1.5203   0.05743   0.05003  -0.0674  0.1511  1.0000  -4.3800   0.0000   0.0000   0.0000   0.2700
  14.500   1.5180   0.06028   0.05287  -0.0663  0.1413  1.0000  -4.4458   0.0000   0.0000   0.0000   0.2688
  14.750   1.5160   0.06314   0.05572  -0.0653  0.1324  1.0000  -4.5123   0.0000   0.0000   0.0000   0.2677
  15.000   1.5145   0.06601   0.05860  -0.0645  0.1243  1.0000  -4.5796   0.0000   0.0000   0.0000   0.2666
  15.250   1.5136   0.06887   0.06147  -0.0637  0.1170  1.0000  -4.6477   0.0000   0.0000   0.0000   0.2656
  15.500   1.5133   0.07167   0.06429  -0.0629  0.1105  1.0000  -4.7174   0.0000   0.0000   0.0000   0.2645
  15.750   1.5140   0.07437   0.06697  -0.0622  0.1046  1.0000  -4.7949   0.0000   0.0000   0.0000   0.2635
  16.000   1.5152   0.07705   0.06964  -0.0616  0.0991  1.0000  -4.8732   0.0000   0.0000   0.0000   0.2625
  16.250   1.5153   0.07997   0.07266  -0.0612  0.0939  1.0000  -4.9436   0.0000   0.0000   0.0000   0.2617
  16.500   1.5171   0.08260   0.07533  -0.0607  0.0893  1.0000  -5.0383   0.0000   0.0000   0.0000   0.2607
  16.750   1.5218   0.08479   0.07745  -0.0601  0.0849  1.0000  -5.1495   0.0000   0.0000   0.0000   0.2597
  17.000   1.5204   0.08805   0.08088  -0.0600  0.0808  1.0000  -5.2224   0.0000   0.0000   0.0000   0.2590
  17.250   1.5251   0.09029   0.08311  -0.0595  0.0770  1.0000  -5.3300   0.0000   0.0000   0.0000   0.2580
  17.500   1.5268   0.09308   0.08598  -0.0594  0.0735  1.0000  -5.4196   0.0000   0.0000   0.0000   0.2573
  17.750   1.5302   0.09559   0.08856  -0.0591  0.0702  1.0000  -5.5195   0.0000   0.0000   0.0000   0.2565
  18.000   1.5356   0.09778   0.09075  -0.0589  0.0671  1.0000  -5.6348   0.0000   0.0000   0.0000   0.2556
  18.250   1.5373   0.10062   0.09373  -0.0589  0.0645  1.0000  -5.7209   0.0000   0.0000   0.0000   0.2550
  18.500   1.5425   0.10290   0.09606  -0.0589  0.0619  1.0000  -5.8316   0.0000   0.0000   0.0000   0.2542
  18.750   1.5476   0.10523   0.09846  -0.0588  0.0597  1.0000  -5.9356   0.0000   0.0000   0.0000   0.2534
  19.000   1.5465   0.10859   0.10200  -0.0594  0.0578  1.0000  -6.0030   0.0000   0.0000   0.0000   0.2532
  19.250   1.5634   0.10902   0.10230  -0.0585  0.0556  1.0000  -6.1841   0.0000   0.0000   0.0000   0.2517
  19.500   1.5522   0.11403   0.10765  -0.0602  0.0545  1.0000  -6.1841   0.0000   0.0000   0.0000   0.2523
  19.750   1.5489   0.11782   0.11164  -0.0613  0.0532  1.0000  -6.2324   0.0000   0.0000   0.0000   0.2525
  20.000   1.5589   0.11939   0.11320  -0.0614  0.0517  1.0000  -6.3766   0.0000   0.0000   0.0000   0.2517


