xflr5 v6.61

 Calculated polar for: QX0226

 1 1 Reynolds number fixed          Mach number fixed         

 xtrf =   1.000 (top)        1.000 (bottom)
 Mach =   0.000     Re =     1.000 e 6     Ncrit =   9.000

  alpha     CL        CD       CDp       Cm    Top Xtr Bot Xtr   Cpmin    Chinge    XCp    
 ------- -------- --------- --------- -------- ------- ------- -------- --------- ---------
 -10.000  -0.5006   0.01658   0.01133  -0.1300  0.8097  0.0206  -6.5405   0.0000   0.0000   0.0000  -0.0288
  -9.750  -0.4746   0.01593   0.01058  -0.1302  0.8064  0.0210  -6.3099   0.0000   0.0000   0.0000  -0.0436
  -9.500  -0.4484   0.01537   0.01000  -0.1304  0.8036  0.0213  -6.0701   0.0000   0.0000   0.0000  -0.0603
  -9.250  -0.4214   0.01494   0.00953  -0.1306  0.8007  0.0218  -5.8292   0.0000   0.0000   0.0000  -0.0797
  -9.000  -0.3942   0.01450   0.00903  -0.1307  0.7975  0.0222  -5.5947   0.0000   0.0000   0.0000  -0.1021
  -8.750  -0.3667   0.01410   0.00853  -0.1309  0.7945  0.0228  -5.3651   0.0000   0.0000   0.0000  -0.1279
  -8.500  -0.3398   0.01359   0.00795  -0.1311  0.7918  0.0233  -5.1462   0.0000   0.0000   0.0000  -0.1574
  -8.250  -0.3122   0.01320   0.00756  -0.1313  0.7888  0.0238  -4.9252   0.0000   0.0000   0.0000  -0.1931
  -8.000  -0.2843   0.01285   0.00717  -0.1315  0.7857  0.0244  -4.7099   0.0000   0.0000   0.0000  -0.2361
  -7.750  -0.2563   0.01252   0.00676  -0.1317  0.7829  0.0251  -4.5013   0.0000   0.0000   0.0000  -0.2887
  -7.500  -0.2287   0.01210   0.00629  -0.1318  0.7802  0.0257  -4.3036   0.0000   0.0000   0.0000  -0.3534
  -7.250  -0.2005   0.01179   0.00598  -0.1321  0.7771  0.0264  -4.1026   0.0000   0.0000   0.0000  -0.4380
  -7.000  -0.1721   0.01152   0.00567  -0.1323  0.7742  0.0273  -3.9085   0.0000   0.0000   0.0000  -0.5511
  -6.750  -0.1440   0.01118   0.00528  -0.1325  0.7715  0.0282  -3.7223   0.0000   0.0000   0.0000  -0.7072
  -6.500  -0.1156   0.01091   0.00499  -0.1327  0.7686  0.0291  -3.5348   0.0000   0.0000   0.0000  -0.9421
  -6.250  -0.0869   0.01067   0.00472  -0.1329  0.7655  0.0302  -3.3593   0.0000   0.0000   0.0000  -1.3354
  -6.000  -0.0585   0.01037   0.00441  -0.1332  0.7626  0.0313  -3.1865   0.0000   0.0000   0.0000  -2.1057
  -5.750  -0.0297   0.01019   0.00418  -0.1334  0.7600  0.0327  -3.0138   0.0000   0.0000   0.0000  -4.3800
  -5.500  -0.0011   0.00992   0.00391  -0.1336  0.7569  0.0341  -2.8470   0.0000   0.0000   0.0000  -128.5204
  -5.250   0.0278   0.00973   0.00370  -0.1339  0.7539  0.0357  -2.6801   0.0000   0.0000   0.0000   5.2039
  -5.000   0.0566   0.00951   0.00346  -0.1341  0.7511  0.0375  -2.5258   0.0000   0.0000   0.0000   2.6850
  -4.750   0.0856   0.00937   0.00330  -0.1343  0.7482  0.0396  -2.3723   0.0000   0.0000   0.0000   1.8601
  -4.500   0.1145   0.00915   0.00310  -0.1346  0.7450  0.0419  -2.2222   0.0000   0.0000   0.0000   1.4542
  -4.250   0.1434   0.00897   0.00291  -0.1348  0.7419  0.0445  -2.0753   0.0000   0.0000   0.0000   1.2113
  -4.000   0.1724   0.00884   0.00274  -0.1351  0.7391  0.0477  -1.9305   0.0000   0.0000   0.0000   1.0497
  -3.750   0.2015   0.00867   0.00260  -0.1353  0.7356  0.0517  -1.7936   0.0000   0.0000   0.0000   0.9347
  -3.500   0.2305   0.00850   0.00245  -0.1356  0.7323  0.0571  -1.6613   0.0000   0.0000   0.0000   0.8487
  -3.250   0.2595   0.00836   0.00231  -0.1359  0.7293  0.0650  -1.5317   0.0000   0.0000   0.0000   0.7819
  -3.000   0.2885   0.00819   0.00220  -0.1361  0.7258  0.0773  -1.4048   0.0000   0.0000   0.0000   0.7286
  -2.750   0.3175   0.00801   0.00209  -0.1364  0.7221  0.0958  -1.2818   0.0000   0.0000   0.0000   0.6852
  -2.500   0.3464   0.00787   0.00200  -0.1367  0.7189  0.1192  -1.1656   0.0000   0.0000   0.0000   0.6490
  -2.250   0.3755   0.00771   0.00194  -0.1370  0.7151  0.1455  -1.0517   0.0000   0.0000   0.0000   0.6184
  -2.000   0.4044   0.00757   0.00188  -0.1373  0.7113  0.1731  -0.9425   0.0000   0.0000   0.0000   0.5921
  -1.750   0.4334   0.00747   0.00183  -0.1376  0.7079  0.1999  -0.8390   0.0000   0.0000   0.0000   0.5693
  -1.500   0.4624   0.00733   0.00180  -0.1379  0.7037  0.2308  -0.7898   0.0000   0.0000   0.0000   0.5494
  -1.250   0.4914   0.00722   0.00176  -0.1382  0.6999  0.2652  -0.8083   0.0000   0.0000   0.0000   0.5319
  -1.000   0.5203   0.00709   0.00174  -0.1385  0.6959  0.3048  -0.8268   0.0000   0.0000   0.0000   0.5163
  -0.750   0.5492   0.00694   0.00173  -0.1388  0.6916  0.3547  -0.8463   0.0000   0.0000   0.0000   0.5024
  -0.500   0.5779   0.00680   0.00173  -0.1391  0.6877  0.4149  -0.8665   0.0000   0.0000   0.0000   0.4899
  -0.250   0.6067   0.00662   0.00175  -0.1394  0.6830  0.4841  -0.8870   0.0000   0.0000   0.0000   0.4785
   0.000   0.6352   0.00649   0.00177  -0.1396  0.6787  0.5523  -0.9080   0.0000   0.0000   0.0000   0.4682
   0.250   0.6639   0.00638   0.00181  -0.1398  0.6739  0.6084  -0.9303   0.0000   0.0000   0.0000   0.4586
   0.500   0.6922   0.00630   0.00185  -0.1399  0.6692  0.6651  -0.9530   0.0000   0.0000   0.0000   0.4498
   0.750   0.7207   0.00626   0.00190  -0.1400  0.6642  0.7055  -0.9761   0.0000   0.0000   0.0000   0.4416
   1.000   0.7489   0.00624   0.00194  -0.1401  0.6591  0.7388  -1.0004   0.0000   0.0000   0.0000   0.4340
   1.250   0.7770   0.00622   0.00199  -0.1401  0.6537  0.7702  -1.0256   0.0000   0.0000   0.0000   0.4269
   1.500   0.8047   0.00621   0.00204  -0.1400  0.6484  0.8007  -1.0508   0.0000   0.0000   0.0000   0.4203
   1.750   0.8322   0.00619   0.00210  -0.1399  0.6425  0.8334  -1.0771   0.0000   0.0000   0.0000   0.4141
   2.250   0.8825   0.00612   0.00221  -0.1385  0.6303  0.9154  -1.1301   0.0000   0.0000   0.0000   0.4023
   2.500   0.9129   0.00607   0.00221  -0.1389  0.6238  1.0000  -1.1607   0.0000   0.0000   0.0000   0.3972
   2.750   0.9411   0.00617   0.00226  -0.1390  0.6171  1.0000  -1.1913   0.0000   0.0000   0.0000   0.3925
   3.000   0.9694   0.00626   0.00233  -0.1392  0.6094  1.0000  -1.2233   0.0000   0.0000   0.0000   0.3880
   3.250   0.9974   0.00636   0.00240  -0.1393  0.6015  1.0000  -1.2556   0.0000   0.0000   0.0000   0.3838
   3.500   1.0252   0.00647   0.00248  -0.1394  0.5930  1.0000  -1.2900   0.0000   0.0000   0.0000   0.3797
   3.750   1.0527   0.00660   0.00257  -0.1394  0.5836  1.0000  -1.3266   0.0000   0.0000   0.0000   0.3759
   4.000   1.0799   0.00674   0.00267  -0.1394  0.5736  1.0000  -1.3634   0.0000   0.0000   0.0000   0.3722
   4.250   1.1069   0.00688   0.00278  -0.1393  0.5632  1.0000  -1.4039   0.0000   0.0000   0.0000   0.3686
   4.500   1.1335   0.00705   0.00290  -0.1392  0.5514  1.0000  -1.4453   0.0000   0.0000   0.0000   0.3653
   4.750   1.1597   0.00724   0.00304  -0.1390  0.5389  1.0000  -1.4873   0.0000   0.0000   0.0000   0.3620
   5.000   1.1855   0.00745   0.00320  -0.1388  0.5260  1.0000  -1.5336   0.0000   0.0000   0.0000   0.3588
   5.250   1.2110   0.00767   0.00336  -0.1385  0.5112  1.0000  -1.5806   0.0000   0.0000   0.0000   0.3558
   5.500   1.2356   0.00793   0.00356  -0.1380  0.4954  1.0000  -1.6309   0.0000   0.0000   0.0000   0.3528
   5.750   1.2599   0.00820   0.00377  -0.1375  0.4789  1.0000  -1.6858   0.0000   0.0000   0.0000   0.3499
   6.000   1.2834   0.00851   0.00401  -0.1369  0.4613  1.0000  -1.7485   0.0000   0.0000   0.0000   0.3470
   6.250   1.3061   0.00886   0.00427  -0.1361  0.4429  1.0000  -1.8194   0.0000   0.0000   0.0000   0.3442
   6.500   1.3280   0.00923   0.00456  -0.1352  0.4236  1.0000  -1.8937   0.0000   0.0000   0.0000   0.3415
   6.750   1.3492   0.00964   0.00487  -0.1343  0.4043  1.0000  -1.9708   0.0000   0.0000   0.0000   0.3388
   7.000   1.3697   0.01005   0.00520  -0.1332  0.3855  1.0000  -2.0524   0.0000   0.0000   0.0000   0.3361
   7.250   1.3895   0.01049   0.00555  -0.1319  0.3663  1.0000  -2.1350   0.0000   0.0000   0.0000   0.3335
   7.500   1.4086   0.01093   0.00591  -0.1306  0.3485  1.0000  -2.2189   0.0000   0.0000   0.0000   0.3309
   7.750   1.4253   0.01138   0.00629  -0.1289  0.3324  1.0000  -2.2994   0.0000   0.0000   0.0000   0.3282
   8.000   1.4414   0.01188   0.00673  -0.1270  0.3161  1.0000  -2.3871   0.0000   0.0000   0.0000   0.3255
   8.250   1.4572   0.01243   0.00721  -0.1253  0.2991  1.0000  -2.4965   0.0000   0.0000   0.0000   0.3230
   8.500   1.4719   0.01305   0.00775  -0.1234  0.2821  1.0000  -2.6047   0.0000   0.0000   0.0000   0.3204
   8.750   1.4857   0.01374   0.00837  -0.1215  0.2648  1.0000  -2.7117   0.0000   0.0000   0.0000   0.3180
   9.000   1.4992   0.01448   0.00903  -0.1196  0.2480  1.0000  -2.8195   0.0000   0.0000   0.0000   0.3156
   9.250   1.5128   0.01525   0.00973  -0.1178  0.2322  1.0000  -2.9322   0.0000   0.0000   0.0000   0.3133
   9.500   1.5252   0.01611   0.01052  -0.1160  0.2166  1.0000  -3.0435   0.0000   0.0000   0.0000   0.3110
   9.750   1.5374   0.01701   0.01135  -0.1142  0.2011  1.0000  -3.1552   0.0000   0.0000   0.0000   0.3088
  10.000   1.5495   0.01794   0.01223  -0.1124  0.1871  1.0000  -3.2681   0.0000   0.0000   0.0000   0.3066
  10.250   1.5601   0.01899   0.01320  -0.1105  0.1728  1.0000  -3.3779   0.0000   0.0000   0.0000   0.3045
  10.500   1.5708   0.02005   0.01421  -0.1088  0.1587  1.0000  -3.4889   0.0000   0.0000   0.0000   0.3024
  10.750   1.5802   0.02122   0.01531  -0.1069  0.1457  1.0000  -3.5973   0.0000   0.0000   0.0000   0.3003
  11.000   1.5901   0.02238   0.01642  -0.1051  0.1331  1.0000  -3.7079   0.0000   0.0000   0.0000   0.2983
  11.250   1.5987   0.02364   0.01763  -0.1033  0.1219  1.0000  -3.8158   0.0000   0.0000   0.0000   0.2964
  11.500   1.6081   0.02487   0.01883  -0.1016  0.1119  1.0000  -3.9270   0.0000   0.0000   0.0000   0.2945
  11.750   1.6168   0.02616   0.02009  -0.0999  0.1024  1.0000  -4.0370   0.0000   0.0000   0.0000   0.2926
  12.000   1.6250   0.02752   0.02142  -0.0982  0.0939  1.0000  -4.1462   0.0000   0.0000   0.0000   0.2907
  12.250   1.6327   0.02892   0.02280  -0.0965  0.0862  1.0000  -4.2546   0.0000   0.0000   0.0000   0.2889
  12.500   1.6402   0.03036   0.02423  -0.0949  0.0793  1.0000  -4.3642   0.0000   0.0000   0.0000   0.2872
  12.750   1.6475   0.03184   0.02570  -0.0933  0.0732  1.0000  -4.4769   0.0000   0.0000   0.0000   0.2854
  13.000   1.6549   0.03336   0.02722  -0.0918  0.0677  1.0000  -4.5906   0.0000   0.0000   0.0000   0.2838
  13.250   1.6621   0.03493   0.02879  -0.0903  0.0629  1.0000  -4.7048   0.0000   0.0000   0.0000   0.2821
  13.500   1.6691   0.03655   0.03042  -0.0890  0.0587  1.0000  -4.8184   0.0000   0.0000   0.0000   0.2806
  13.750   1.6755   0.03825   0.03214  -0.0876  0.0550  1.0000  -4.9311   0.0000   0.0000   0.0000   0.2790
  14.000   1.6819   0.03999   0.03390  -0.0863  0.0516  1.0000  -5.0440   0.0000   0.0000   0.0000   0.2775
  14.250   1.6888   0.04172   0.03565  -0.0852  0.0486  1.0000  -5.1598   0.0000   0.0000   0.0000   0.2761
  14.500   1.6945   0.04359   0.03755  -0.0840  0.0459  1.0000  -5.2714   0.0000   0.0000   0.0000   0.2747
  14.750   1.7000   0.04551   0.03950  -0.0829  0.0433  1.0000  -5.3828   0.0000   0.0000   0.0000   0.2733
  15.000   1.7056   0.04745   0.04148  -0.0818  0.0409  1.0000  -5.4948   0.0000   0.0000   0.0000   0.2720
  15.250   1.7093   0.04962   0.04368  -0.0808  0.0387  1.0000  -5.6049   0.0000   0.0000   0.0000   0.2707
  15.500   1.7141   0.05171   0.04581  -0.0798  0.0365  1.0000  -5.7408   0.0000   0.0000   0.0000   0.2694
  15.750   1.7175   0.05398   0.04813  -0.0789  0.0344  1.0000  -5.8706   0.0000   0.0000   0.0000   0.2682
  16.000   1.7193   0.05646   0.05063  -0.0780  0.0324  1.0000  -5.9940   0.0000   0.0000   0.0000   0.2671
  16.250   1.7223   0.05884   0.05307  -0.0773  0.0304  1.0000  -6.1234   0.0000   0.0000   0.0000   0.2660
  16.500   1.7232   0.06149   0.05577  -0.0765  0.0286  1.0000  -6.2427   0.0000   0.0000   0.0000   0.2649
  16.750   1.7234   0.06427   0.05859  -0.0758  0.0269  1.0000  -6.3588   0.0000   0.0000   0.0000   0.2639
  17.000   1.7238   0.06708   0.06146  -0.0753  0.0254  1.0000  -6.4755   0.0000   0.0000   0.0000   0.2629
  17.250   1.7218   0.07019   0.06462  -0.0748  0.0242  1.0000  -6.5806   0.0000   0.0000   0.0000   0.2621
  17.500   1.7211   0.07319   0.06769  -0.0744  0.0231  1.0000  -6.6921   0.0000   0.0000   0.0000   0.2612
  17.750   1.7188   0.07644   0.07100  -0.0741  0.0222  1.0000  -6.7959   0.0000   0.0000   0.0000   0.2605
  18.000   1.7156   0.07984   0.07446  -0.0738  0.0214  1.0000  -6.8938   0.0000   0.0000   0.0000   0.2598
  18.250   1.7139   0.08309   0.07779  -0.0737  0.0206  1.0000  -7.0002   0.0000   0.0000   0.0000   0.2592
  18.500   1.7099   0.08670   0.08147  -0.0738  0.0200  1.0000  -7.0968   0.0000   0.0000   0.0000   0.2586
  18.750   1.7042   0.09057   0.08541  -0.0739  0.0194  1.0000  -7.1827   0.0000   0.0000   0.0000   0.2582
  19.000   1.7018   0.09402   0.08895  -0.0742  0.0189  1.0000  -7.2879   0.0000   0.0000   0.0000   0.2578
  19.250   1.6977   0.09776   0.09277  -0.0746  0.0184  1.0000  -7.3819   0.0000   0.0000   0.0000   0.2574
  19.500   1.6920   0.10176   0.09685  -0.0752  0.0180  1.0000  -7.4650   0.0000   0.0000   0.0000   0.2573
  19.750   1.6846   0.10605   0.10121  -0.0759  0.0177  1.0000  -7.5355   0.0000   0.0000   0.0000   0.2572
  20.000   1.6779   0.11029   0.10554  -0.0768  0.0174  1.0000  -7.6076   0.0000   0.0000   0.0000   0.2573


