xflr5 v6.61

 Calculated polar for: QX0226

 1 1 Reynolds number fixed          Mach number fixed         

 xtrf =   1.000 (top)        1.000 (bottom)
 Mach =   0.000     Re =     0.340 e 6     Ncrit =   9.000

  alpha     CL        CD       CDp       Cm    Top Xtr Bot Xtr   Cpmin    Chinge    XCp    
 ------- -------- --------- --------- -------- ------- ------- -------- --------- ---------
  -9.250  -0.3017   0.04557   0.04195  -0.1273  0.8670  0.0363  -3.9635   0.0000   0.0000   0.0000  -0.1967
  -9.000  -0.2945   0.04197   0.03823  -0.1299  0.8617  0.0360  -3.9395   0.0000   0.0000   0.0000  -0.2158
  -8.750  -0.2949   0.03617   0.03198  -0.1333  0.8572  0.0355  -4.0491   0.0000   0.0000   0.0000  -0.2262
  -8.500  -0.2911   0.03030   0.02539  -0.1356  0.8525  0.0355  -4.1827   0.0000   0.0000   0.0000  -0.2398
  -8.250  -0.2767   0.02652   0.02094  -0.1363  0.8484  0.0359  -4.1989   0.0000   0.0000   0.0000  -0.2673
  -8.000  -0.2565   0.02407   0.01791  -0.1365  0.8455  0.0365  -4.1362   0.0000   0.0000   0.0000  -0.3080
  -7.750  -0.2309   0.02336   0.01731  -0.1366  0.8416  0.0373  -3.9359   0.0000   0.0000   0.0000  -0.3692
  -7.500  -0.2060   0.02232   0.01609  -0.1367  0.8380  0.0383  -3.7883   0.0000   0.0000   0.0000  -0.4434
  -7.250  -0.1810   0.02094   0.01433  -0.1367  0.8352  0.0393  -3.6759   0.0000   0.0000   0.0000  -0.5378
  -7.000  -0.1554   0.01988   0.01312  -0.1367  0.8317  0.0402  -3.5323   0.0000   0.0000   0.0000  -0.6662
  -6.750  -0.1289   0.01925   0.01249  -0.1368  0.8281  0.0414  -3.3677   0.0000   0.0000   0.0000  -0.8534
  -6.500  -0.1019   0.01847   0.01147  -0.1367  0.8252  0.0430  -3.2353   0.0000   0.0000   0.0000  -1.1430
  -6.250  -0.0752   0.01771   0.01068  -0.1368  0.8223  0.0442  -3.0854   0.0000   0.0000   0.0000  -1.6347
  -6.000  -0.0483   0.01718   0.01011  -0.1368  0.8184  0.0459  -2.9363   0.0000   0.0000   0.0000  -2.6775
  -5.750  -0.0210   0.01655   0.00939  -0.1368  0.8153  0.0478  -2.8024   0.0000   0.0000   0.0000  -6.4637
  -5.500   0.0067   0.01607   0.00887  -0.1369  0.8129  0.0498  -2.6568   0.0000   0.0000   0.0000  21.2191
  -5.250   0.0335   0.01558   0.00836  -0.1368  0.8088  0.0521  -2.5236   0.0000   0.0000   0.0000   4.4619
  -5.000   0.0611   0.01518   0.00795  -0.1369  0.8055  0.0548  -2.3808   0.0000   0.0000   0.0000   2.5545
  -4.750   0.0889   0.01471   0.00747  -0.1370  0.8029  0.0577  -2.2500   0.0000   0.0000   0.0000   1.8311
  -4.500   0.1164   0.01439   0.00712  -0.1370  0.7993  0.0613  -2.1231   0.0000   0.0000   0.0000   1.4570
  -4.250   0.1440   0.01405   0.00680  -0.1371  0.7957  0.0655  -1.9926   0.0000   0.0000   0.0000   1.2245
  -4.000   0.1723   0.01368   0.00643  -0.1372  0.7929  0.0705  -1.8628   0.0000   0.0000   0.0000   1.0642
  -3.750   0.2002   0.01338   0.00615  -0.1374  0.7898  0.0770  -1.7402   0.0000   0.0000   0.0000   0.9501
  -3.500   0.2279   0.01310   0.00590  -0.1375  0.7858  0.0858  -1.6235   0.0000   0.0000   0.0000   0.8645
  -3.250   0.2565   0.01276   0.00561  -0.1377  0.7828  0.0994  -1.5051   0.0000   0.0000   0.0000   0.7961
  -3.000   0.2850   0.01244   0.00538  -0.1379  0.7799  0.1224  -1.3881   0.0000   0.0000   0.0000   0.7416
  -2.750   0.3125   0.01218   0.00527  -0.1380  0.7757  0.1572  -1.2763   0.0000   0.0000   0.0000   0.6981
  -2.500   0.3412   0.01193   0.00513  -0.1383  0.7725  0.1970  -1.1640   0.0000   0.0000   0.0000   0.6605
  -2.250   0.3700   0.01171   0.00501  -0.1386  0.7696  0.2375  -1.0527   0.0000   0.0000   0.0000   0.6287
  -2.000   0.3975   0.01154   0.00500  -0.1387  0.7651  0.2804  -0.9496   0.0000   0.0000   0.0000   0.6022
  -1.750   0.4262   0.01131   0.00490  -0.1390  0.7618  0.3332  -0.8476   0.0000   0.0000   0.0000   0.5785
  -1.500   0.4545   0.01108   0.00485  -0.1392  0.7584  0.3967  -0.7785   0.0000   0.0000   0.0000   0.5580
  -1.250   0.4818   0.01085   0.00488  -0.1392  0.7540  0.4732  -0.7958   0.0000   0.0000   0.0000   0.5402
  -1.000   0.5101   0.01060   0.00484  -0.1393  0.7507  0.5579  -0.8146   0.0000   0.0000   0.0000   0.5237
  -0.750   0.5367   0.01044   0.00492  -0.1390  0.7466  0.6328  -0.8332   0.0000   0.0000   0.0000   0.5091
  -0.500   0.5635   0.01032   0.00496  -0.1386  0.7423  0.6973  -0.8525   0.0000   0.0000   0.0000   0.4956
  -0.250   0.5911   0.01021   0.00491  -0.1382  0.7393  0.7475  -0.8728   0.0000   0.0000   0.0000   0.4830
   0.000   0.6159   0.01016   0.00500  -0.1374  0.7341  0.7908  -0.8918   0.0000   0.0000   0.0000   0.4719
   0.250   0.6414   0.01005   0.00495  -0.1366  0.7303  0.8322  -0.9125   0.0000   0.0000   0.0000   0.4613
   0.500   0.6645   0.00997   0.00496  -0.1352  0.7258  0.8738  -0.9321   0.0000   0.0000   0.0000   0.4514
   0.750   0.6878   0.00985   0.00490  -0.1338  0.7213  0.9252  -0.9525   0.0000   0.0000   0.0000   0.4421
   1.000   0.7273   0.00973   0.00474  -0.1360  0.7174  1.0000  -0.9832   0.0000   0.0000   0.0000   0.4342
   1.250   0.7557   0.00979   0.00476  -0.1363  0.7120  1.0000  -1.0081   0.0000   0.0000   0.0000   0.4272
   1.500   0.7860   0.00980   0.00467  -0.1368  0.7081  1.0000  -1.0348   0.0000   0.0000   0.0000   0.4206
   1.750   0.8135   0.00987   0.00473  -0.1368  0.7021  1.0000  -1.0606   0.0000   0.0000   0.0000   0.4144
   2.000   0.8434   0.00989   0.00466  -0.1372  0.6979  1.0000  -1.0895   0.0000   0.0000   0.0000   0.4086
   2.250   0.8706   0.00996   0.00473  -0.1372  0.6916  1.0000  -1.1172   0.0000   0.0000   0.0000   0.4031
   2.500   0.8995   0.01000   0.00471  -0.1374  0.6865  1.0000  -1.1467   0.0000   0.0000   0.0000   0.3979
   2.750   0.9272   0.01005   0.00475  -0.1374  0.6804  1.0000  -1.1768   0.0000   0.0000   0.0000   0.3931
   3.000   0.9550   0.01011   0.00479  -0.1374  0.6744  1.0000  -1.2081   0.0000   0.0000   0.0000   0.3885
   3.250   0.9835   0.01015   0.00478  -0.1376  0.6685  1.0000  -1.2408   0.0000   0.0000   0.0000   0.3841
   3.500   1.0103   0.01023   0.00487  -0.1374  0.6613  1.0000  -1.2738   0.0000   0.0000   0.0000   0.3799
   3.750   1.0378   0.01030   0.00492  -0.1374  0.6546  1.0000  -1.3101   0.0000   0.0000   0.0000   0.3759
   4.000   1.0657   0.01037   0.00494  -0.1374  0.6479  1.0000  -1.3474   0.0000   0.0000   0.0000   0.3721
   4.250   1.0919   0.01046   0.00504  -0.1371  0.6397  1.0000  -1.3862   0.0000   0.0000   0.0000   0.3685
   4.500   1.1182   0.01056   0.00514  -0.1369  0.6314  1.0000  -1.4268   0.0000   0.0000   0.0000   0.3650
   4.750   1.1445   0.01066   0.00524  -0.1366  0.6226  1.0000  -1.4688   0.0000   0.0000   0.0000   0.3616
   5.000   1.1703   0.01078   0.00534  -0.1363  0.6132  1.0000  -1.5136   0.0000   0.0000   0.0000   0.3583
   5.250   1.1959   0.01091   0.00546  -0.1359  0.6032  1.0000  -1.5606   0.0000   0.0000   0.0000   0.3552
   5.500   1.2210   0.01106   0.00560  -0.1354  0.5927  1.0000  -1.6097   0.0000   0.0000   0.0000   0.3521
   5.750   1.2456   0.01122   0.00576  -0.1349  0.5813  1.0000  -1.6638   0.0000   0.0000   0.0000   0.3491
   6.000   1.2697   0.01142   0.00593  -0.1343  0.5694  1.0000  -1.7252   0.0000   0.0000   0.0000   0.3462
   6.250   1.2931   0.01164   0.00612  -0.1335  0.5569  1.0000  -1.7934   0.0000   0.0000   0.0000   0.3434
   6.500   1.3155   0.01189   0.00636  -0.1327  0.5427  1.0000  -1.8675   0.0000   0.0000   0.0000   0.3406
   6.750   1.3372   0.01218   0.00661  -0.1316  0.5282  1.0000  -1.9434   0.0000   0.0000   0.0000   0.3378
   7.000   1.3578   0.01250   0.00691  -0.1305  0.5125  1.0000  -2.0213   0.0000   0.0000   0.0000   0.3351
   7.250   1.3770   0.01287   0.00723  -0.1291  0.4961  1.0000  -2.1010   0.0000   0.0000   0.0000   0.3323
   7.500   1.3947   0.01330   0.00761  -0.1274  0.4784  1.0000  -2.1796   0.0000   0.0000   0.0000   0.3296
   7.750   1.4109   0.01377   0.00803  -0.1256  0.4603  1.0000  -2.2584   0.0000   0.0000   0.0000   0.3268
   8.000   1.4240   0.01429   0.00849  -0.1232  0.4426  1.0000  -2.3325   0.0000   0.0000   0.0000   0.3239
   8.250   1.4359   0.01490   0.00904  -0.1207  0.4253  1.0000  -2.4215   0.0000   0.0000   0.0000   0.3211
   8.500   1.4477   0.01557   0.00965  -0.1183  0.4078  1.0000  -2.5206   0.0000   0.0000   0.0000   0.3183
   8.750   1.4591   0.01631   0.01035  -0.1160  0.3905  1.0000  -2.6200   0.0000   0.0000   0.0000   0.3157
   9.000   1.4696   0.01714   0.01112  -0.1137  0.3740  1.0000  -2.7183   0.0000   0.0000   0.0000   0.3132
   9.250   1.4802   0.01802   0.01196  -0.1115  0.3575  1.0000  -2.8174   0.0000   0.0000   0.0000   0.3107
   9.500   1.4904   0.01896   0.01287  -0.1094  0.3414  1.0000  -2.9169   0.0000   0.0000   0.0000   0.3084
  10.000   1.5091   0.02109   0.01492  -0.1053  0.3094  1.0000  -3.1174   0.0000   0.0000   0.0000   0.3038
  10.250   1.5173   0.02228   0.01607  -0.1033  0.2940  1.0000  -3.2175   0.0000   0.0000   0.0000   0.3016
  10.500   1.5254   0.02353   0.01728  -0.1013  0.2781  1.0000  -3.3176   0.0000   0.0000   0.0000   0.2995
  10.750   1.5327   0.02485   0.01857  -0.0993  0.2624  1.0000  -3.4167   0.0000   0.0000   0.0000   0.2975
  11.250   1.5449   0.02779   0.02141  -0.0954  0.2309  1.0000  -3.6093   0.0000   0.0000   0.0000   0.2935
  11.500   1.5499   0.02939   0.02297  -0.0935  0.2155  1.0000  -3.7031   0.0000   0.0000   0.0000   0.2915
  11.750   1.5538   0.03110   0.02463  -0.0915  0.2004  1.0000  -3.7941   0.0000   0.0000   0.0000   0.2896
  12.000   1.5581   0.03283   0.02632  -0.0897  0.1854  1.0000  -3.8867   0.0000   0.0000   0.0000   0.2878
  12.250   1.5609   0.03471   0.02815  -0.0879  0.1715  1.0000  -3.9748   0.0000   0.0000   0.0000   0.2860
  12.500   1.5643   0.03659   0.03001  -0.0862  0.1579  1.0000  -4.0653   0.0000   0.0000   0.0000   0.2843
  12.750   1.5664   0.03865   0.03203  -0.0845  0.1459  1.0000  -4.1514   0.0000   0.0000   0.0000   0.2827
  13.000   1.5699   0.04065   0.03402  -0.0830  0.1343  1.0000  -4.2423   0.0000   0.0000   0.0000   0.2811
  13.250   1.5721   0.04282   0.03616  -0.0815  0.1238  1.0000  -4.3322   0.0000   0.0000   0.0000   0.2796
  13.500   1.5735   0.04511   0.03844  -0.0801  0.1144  1.0000  -4.4194   0.0000   0.0000   0.0000   0.2781
  14.000   1.5756   0.04994   0.04327  -0.0776  0.0985  1.0000  -4.5905   0.0000   0.0000   0.0000   0.2753
  14.250   1.5765   0.05245   0.04579  -0.0765  0.0917  1.0000  -4.6752   0.0000   0.0000   0.0000   0.2741
  14.500   1.5776   0.05498   0.04836  -0.0755  0.0857  1.0000  -4.7608   0.0000   0.0000   0.0000   0.2728
  14.750   1.5785   0.05761   0.05102  -0.0746  0.0803  1.0000  -4.8450   0.0000   0.0000   0.0000   0.2717
  15.000   1.5784   0.06039   0.05384  -0.0737  0.0758  1.0000  -4.9248   0.0000   0.0000   0.0000   0.2706
  15.250   1.5759   0.06350   0.05696  -0.0730  0.0720  1.0000  -4.9955   0.0000   0.0000   0.0000   0.2696
  15.500   1.5770   0.06624   0.05978  -0.0723  0.0680  1.0000  -5.0791   0.0000   0.0000   0.0000   0.2686
  15.750   1.5752   0.06936   0.06296  -0.0718  0.0647  1.0000  -5.1535   0.0000   0.0000   0.0000   0.2677
  16.000   1.5733   0.07257   0.06621  -0.0714  0.0617  1.0000  -5.2291   0.0000   0.0000   0.0000   0.2670
  16.250   1.5719   0.07574   0.06947  -0.0710  0.0587  1.0000  -5.3192   0.0000   0.0000   0.0000   0.2662
  16.500   1.5678   0.07932   0.07307  -0.0708  0.0562  1.0000  -5.3970   0.0000   0.0000   0.0000   0.2656
  16.750   1.5665   0.08259   0.07644  -0.0707  0.0534  1.0000  -5.4856   0.0000   0.0000   0.0000   0.2649
  17.000   1.5612   0.08641   0.08029  -0.0707  0.0513  1.0000  -5.5586   0.0000   0.0000   0.0000   0.2645
  17.250   1.5596   0.08982   0.08380  -0.0708  0.0488  1.0000  -5.6473   0.0000   0.0000   0.0000   0.2640
  17.500   1.5541   0.09375   0.08777  -0.0711  0.0469  1.0000  -5.7178   0.0000   0.0000   0.0000   0.2638
  17.750   1.5517   0.09734   0.09147  -0.0714  0.0448  1.0000  -5.7996   0.0000   0.0000   0.0000   0.2634
  18.000   1.5472   0.10122   0.09539  -0.0720  0.0431  1.0000  -5.8723   0.0000   0.0000   0.0000   0.2633
  18.250   1.5438   0.10498   0.09923  -0.0725  0.0414  1.0000  -5.9463   0.0000   0.0000   0.0000   0.2631
  18.500   1.5409   0.10871   0.10302  -0.0733  0.0398  1.0000  -6.0240   0.0000   0.0000   0.0000   0.2631
  18.750   1.5372   0.11251   0.10686  -0.0741  0.0385  1.0000  -6.0960   0.0000   0.0000   0.0000   0.2631
  19.000   1.5357   0.11609   0.11055  -0.0750  0.0370  1.0000  -6.1760   0.0000   0.0000   0.0000   0.2631
  19.250   1.5340   0.11966   0.11415  -0.0760  0.0359  1.0000  -6.2582   0.0000   0.0000   0.0000   0.2631
  19.500   1.5329   0.12310   0.11765  -0.0769  0.0349  1.0000  -6.3398   0.0000   0.0000   0.0000   0.2631
  19.750   1.5326   0.12649   0.12113  -0.0781  0.0338  1.0000  -6.4237   0.0000   0.0000   0.0000   0.2632
  20.000   1.5331   0.12972   0.12439  -0.0792  0.0329  1.0000  -6.5162   0.0000   0.0000   0.0000   0.2633


