xflr5 v6.61

 Calculated polar for: NACA 0012

 1 1 Reynolds number fixed          Mach number fixed         

 xtrf =   1.000 (top)        1.000 (bottom)
 Mach =   0.000     Re =     0.300 e 6     Ncrit =   9.000

  alpha     CL        CD       CDp       Cm    Top Xtr Bot Xtr   Cpmin    Chinge    XCp    
 ------- -------- --------- --------- -------- ------- ------- -------- --------- ---------
 -10.000  -1.0179   0.02383   0.01649  -0.0147  1.0000  0.0416  -4.9700   0.0000   0.0000   0.0000   0.2245
  -9.750  -0.9988   0.02303   0.01570  -0.0136  1.0000  0.0434  -4.7946   0.0000   0.0000   0.0000   0.2256
  -9.500  -0.9791   0.02230   0.01486  -0.0124  1.0000  0.0455  -4.6293   0.0000   0.0000   0.0000   0.2268
  -9.250  -0.9606   0.02129   0.01383  -0.0111  1.0000  0.0474  -4.4712   0.0000   0.0000   0.0000   0.2282
  -9.000  -0.9410   0.02054   0.01309  -0.0100  1.0000  0.0496  -4.3034   0.0000   0.0000   0.0000   0.2295
  -8.750  -0.9208   0.01986   0.01229  -0.0087  1.0000  0.0522  -4.1424   0.0000   0.0000   0.0000   0.2309
  -8.500  -0.9022   0.01905   0.01155  -0.0074  1.0000  0.0550  -3.9795   0.0000   0.0000   0.0000   0.2325
  -8.250  -0.8820   0.01844   0.01087  -0.0061  1.0000  0.0585  -3.8181   0.0000   0.0000   0.0000   0.2340
  -8.000  -0.8632   0.01775   0.01021  -0.0047  1.0000  0.0620  -3.6622   0.0000   0.0000   0.0000   0.2358
  -7.750  -0.8442   0.01708   0.00954  -0.0032  1.0000  0.0660  -3.5222   0.0000   0.0000   0.0000   0.2377
  -7.500  -0.8238   0.01660   0.00901  -0.0019  1.0000  0.0711  -3.3762   0.0000   0.0000   0.0000   0.2395
  -7.250  -0.8049   0.01598   0.00845  -0.0004  1.0000  0.0768  -3.2349   0.0000   0.0000   0.0000   0.2415
  -7.000  -0.7855   0.01542   0.00791   0.0011  1.0000  0.0834  -3.0944   0.0000   0.0000   0.0000   0.2436
  -6.750  -0.7658   0.01489   0.00741   0.0025  1.0000  0.0915  -2.9546   0.0000   0.0000   0.0000   0.2457
  -6.500  -0.7461   0.01438   0.00695   0.0040  1.0000  0.1016  -2.8159   0.0000   0.0000   0.0000   0.2480
  -6.250  -0.7265   0.01387   0.00652   0.0054  1.0000  0.1137  -2.6825   0.0000   0.0000   0.0000   0.2503
  -6.000  -0.7066   0.01340   0.00612   0.0067  1.0000  0.1290  -2.5569   0.0000   0.0000   0.0000   0.2527
  -5.750  -0.6865   0.01294   0.00577   0.0081  1.0000  0.1481  -2.4319   0.0000   0.0000   0.0000   0.2551
  -5.500  -0.6661   0.01250   0.00545   0.0093  1.0000  0.1714  -2.3073   0.0000   0.0000   0.0000   0.2575
  -5.250  -0.6456   0.01209   0.00517   0.0105  1.0000  0.1980  -2.1836   0.0000   0.0000   0.0000   0.2600
  -5.000  -0.6246   0.01172   0.00493   0.0116  1.0000  0.2276  -2.0631   0.0000   0.0000   0.0000   0.2626
  -4.750  -0.6034   0.01138   0.00473   0.0127  1.0000  0.2591  -1.9505   0.0000   0.0000   0.0000   0.2651
  -4.500  -0.5818   0.01107   0.00456   0.0136  1.0000  0.2914  -1.8388   0.0000   0.0000   0.0000   0.2678
  -4.250  -0.5598   0.01080   0.00443   0.0145  1.0000  0.3244  -1.7279   0.0000   0.0000   0.0000   0.2705
  -4.000  -0.5373   0.01057   0.00432   0.0153  1.0000  0.3579  -1.6224   0.0000   0.0000   0.0000   0.2732
  -3.750  -0.5144   0.01037   0.00426   0.0160  1.0000  0.3912  -1.5218   0.0000   0.0000   0.0000   0.2761
  -3.500  -0.4790   0.01014   0.00418   0.0142  0.9972  0.4302  -1.3983   0.0000   0.0000   0.0000   0.2746
  -3.250  -0.4382   0.00990   0.00410   0.0113  0.9928  0.4708  -1.2768   0.0000   0.0000   0.0000   0.2708
  -3.000  -0.3982   0.00966   0.00401   0.0086  0.9877  0.5098  -1.1622   0.0000   0.0000   0.0000   0.2667
  -2.750  -0.3588   0.00942   0.00392   0.0061  0.9820  0.5472  -1.0567   0.0000   0.0000   0.0000   0.2623
  -2.500  -0.3197   0.00920   0.00384   0.0038  0.9762  0.5839  -0.9607   0.0000   0.0000   0.0000   0.2571
  -2.250  -0.2797   0.00898   0.00376   0.0013  0.9708  0.6191  -0.8708   0.0000   0.0000   0.0000   0.2501
  -2.000  -0.2398   0.00876   0.00368  -0.0010  0.9652  0.6532  -0.7886   0.0000   0.0000   0.0000   0.2410
  -1.750  -0.2033   0.00855   0.00359  -0.0026  0.9576  0.6851  -0.7183   0.0000   0.0000   0.0000   0.2327
  -1.500  -0.1688   0.00835   0.00350  -0.0036  0.9489  0.7151  -0.6562   0.0000   0.0000   0.0000   0.2241
  -1.250  -0.1365   0.00816   0.00342  -0.0040  0.9387  0.7433  -0.6022   0.0000   0.0000   0.0000   0.2160
  -1.000  -0.1064   0.00800   0.00336  -0.0039  0.9270  0.7696  -0.5549   0.0000   0.0000   0.0000   0.2088
  -0.750  -0.0779   0.00787   0.00329  -0.0034  0.9139  0.7944  -0.5133   0.0000   0.0000   0.0000   0.2021
  -0.500  -0.0518   0.00778   0.00326  -0.0023  0.8971  0.8180  -0.4770   0.0000   0.0000   0.0000   0.2008
  -0.250  -0.0257   0.00771   0.00323  -0.0012  0.8800  0.8406  -0.4437   0.0000   0.0000   0.0000   0.1983
   0.000   0.0000   0.00770   0.00323  -0.0000  0.8607  0.8607  -0.4132   0.0000   0.0000   0.0000   0.3493
   0.250   0.0257   0.00771   0.00323   0.0012  0.8406  0.8800  -0.4437   0.0000   0.0000   0.0000   0.1983
   0.500   0.0518   0.00778   0.00326   0.0023  0.8180  0.8971  -0.4770   0.0000   0.0000   0.0000   0.2008
   0.750   0.0779   0.00787   0.00329   0.0034  0.7945  0.9139  -0.5133   0.0000   0.0000   0.0000   0.2021
   1.000   0.1064   0.00800   0.00336   0.0039  0.7696  0.9270  -0.5549   0.0000   0.0000   0.0000   0.2088
   1.250   0.1365   0.00816   0.00342   0.0040  0.7432  0.9387  -0.6022   0.0000   0.0000   0.0000   0.2160
   1.500   0.1688   0.00835   0.00350   0.0036  0.7151  0.9489  -0.6562   0.0000   0.0000   0.0000   0.2241
   2.000   0.2398   0.00876   0.00367   0.0010  0.6532  0.9652  -0.7886   0.0000   0.0000   0.0000   0.2410
   2.250   0.2797   0.00898   0.00376  -0.0013  0.6191  0.9709  -0.8708   0.0000   0.0000   0.0000   0.2500
   2.500   0.3197   0.00920   0.00384  -0.0038  0.5839  0.9762  -0.9607   0.0000   0.0000   0.0000   0.2571
   2.750   0.3588   0.00942   0.00392  -0.0061  0.5472  0.9821  -1.0567   0.0000   0.0000   0.0000   0.2623
   3.000   0.3982   0.00966   0.00401  -0.0086  0.5098  0.9877  -1.1622   0.0000   0.0000   0.0000   0.2667
   3.250   0.4382   0.00990   0.00410  -0.0113  0.4708  0.9928  -1.2768   0.0000   0.0000   0.0000   0.2708
   3.500   0.4790   0.01014   0.00418  -0.0142  0.4302  0.9972  -1.3984   0.0000   0.0000   0.0000   0.2746
   3.750   0.5144   0.01036   0.00425  -0.0160  0.3912  1.0000  -1.5217   0.0000   0.0000   0.0000   0.2761
   4.000   0.5372   0.01057   0.00432  -0.0153  0.3580  1.0000  -1.6223   0.0000   0.0000   0.0000   0.2732
   4.250   0.5597   0.01080   0.00443  -0.0145  0.3245  1.0000  -1.7277   0.0000   0.0000   0.0000   0.2705
   4.500   0.5818   0.01107   0.00456  -0.0136  0.2914  1.0000  -1.8386   0.0000   0.0000   0.0000   0.2678
   4.750   0.6033   0.01138   0.00473  -0.0127  0.2592  1.0000  -1.9503   0.0000   0.0000   0.0000   0.2651
   5.000   0.6245   0.01172   0.00493  -0.0116  0.2276  1.0000  -2.0629   0.0000   0.0000   0.0000   0.2625
   5.250   0.6455   0.01209   0.00517  -0.0105  0.1980  1.0000  -2.1834   0.0000   0.0000   0.0000   0.2600
   5.500   0.6661   0.01250   0.00545  -0.0093  0.1714  1.0000  -2.3072   0.0000   0.0000   0.0000   0.2575
   5.750   0.6864   0.01293   0.00576  -0.0080  0.1482  1.0000  -2.4318   0.0000   0.0000   0.0000   0.2551
   6.000   0.7065   0.01339   0.00612  -0.0067  0.1291  1.0000  -2.5568   0.0000   0.0000   0.0000   0.2526
   6.250   0.7265   0.01387   0.00652  -0.0054  0.1137  1.0000  -2.6823   0.0000   0.0000   0.0000   0.2503
   6.500   0.7461   0.01438   0.00695  -0.0039  0.1016  1.0000  -2.8158   0.0000   0.0000   0.0000   0.2480
   6.750   0.7658   0.01489   0.00741  -0.0025  0.0916  1.0000  -2.9545   0.0000   0.0000   0.0000   0.2457
   7.000   0.7855   0.01542   0.00791  -0.0011  0.0834  1.0000  -3.0943   0.0000   0.0000   0.0000   0.2436
   7.250   0.8049   0.01598   0.00845   0.0004  0.0768  1.0000  -3.2348   0.0000   0.0000   0.0000   0.2415
   7.500   0.8238   0.01659   0.00901   0.0019  0.0711  1.0000  -3.3761   0.0000   0.0000   0.0000   0.2394
   7.750   0.8442   0.01708   0.00953   0.0032  0.0660  1.0000  -3.5222   0.0000   0.0000   0.0000   0.2377
   8.000   0.8632   0.01774   0.01021   0.0047  0.0620  1.0000  -3.6622   0.0000   0.0000   0.0000   0.2358
   8.250   0.8820   0.01844   0.01087   0.0061  0.0585  1.0000  -3.8181   0.0000   0.0000   0.0000   0.2340
   8.500   0.9023   0.01905   0.01155   0.0074  0.0550  1.0000  -3.9795   0.0000   0.0000   0.0000   0.2325
   8.750   0.9208   0.01986   0.01229   0.0087  0.0522  1.0000  -4.1426   0.0000   0.0000   0.0000   0.2309
   9.000   0.9411   0.02054   0.01309   0.0099  0.0496  1.0000  -4.3036   0.0000   0.0000   0.0000   0.2295
   9.250   0.9607   0.02129   0.01383   0.0111  0.0474  1.0000  -4.4714   0.0000   0.0000   0.0000   0.2282
   9.500   0.9792   0.02229   0.01485   0.0124  0.0455  1.0000  -4.6296   0.0000   0.0000   0.0000   0.2269
   9.750   0.9989   0.02303   0.01570   0.0136  0.0434  1.0000  -4.7950   0.0000   0.0000   0.0000   0.2256
  10.000   1.0180   0.02384   0.01649   0.0146  0.0416  1.0000  -4.9704   0.0000   0.0000   0.0000   0.2245
  10.250   1.0361   0.02499   0.01771   0.0159  0.0401  1.0000  -5.1265   0.0000   0.0000   0.0000   0.2233
  10.500   1.0542   0.02595   0.01882   0.0171  0.0387  1.0000  -5.2821   0.0000   0.0000   0.0000   0.2220
  10.750   1.0721   0.02692   0.01987   0.0183  0.0374  1.0000  -5.4634   0.0000   0.0000   0.0000   0.2209
  11.000   1.0900   0.02802   0.02095   0.0194  0.0363  1.0000  -5.6520   0.0000   0.0000   0.0000   0.2199
  11.250   1.1061   0.02959   0.02262   0.0206  0.0353  1.0000  -5.8138   0.0000   0.0000   0.0000   0.2187
  11.500   1.1194   0.03079   0.02405   0.0223  0.0342  1.0000  -5.9644   0.0000   0.0000   0.0000   0.2171
  11.750   1.1325   0.03198   0.02539   0.0238  0.0332  1.0000  -6.1247   0.0000   0.0000   0.0000   0.2156
  12.000   1.1448   0.03310   0.02660   0.0254  0.0322  1.0000  -6.2925   0.0000   0.0000   0.0000   0.2141
  12.250   1.1571   0.03434   0.02783   0.0269  0.0315  1.0000  -6.4662   0.0000   0.0000   0.0000   0.2126
  12.500   1.1669   0.03652   0.03010   0.0284  0.0308  1.0000  -6.5975   0.0000   0.0000   0.0000   0.2112
  12.750   1.1656   0.03822   0.03208   0.0312  0.0304  1.0000  -6.6711   0.0000   0.0000   0.0000   0.2084
  13.000   1.1631   0.04030   0.03443   0.0335  0.0299  1.0000  -6.7323   0.0000   0.0000   0.0000   0.2059
  13.250   1.1589   0.04271   0.03709   0.0353  0.0295  1.0000  -6.7815   0.0000   0.0000   0.0000   0.2039
  13.500   1.1530   0.04545   0.04005   0.0365  0.0291  1.0000  -6.8187   0.0000   0.0000   0.0000   0.2022
  13.750   1.1453   0.04856   0.04338   0.0370  0.0288  1.0000  -6.8425   0.0000   0.0000   0.0000   0.2011
  14.000   1.1355   0.05213   0.04716   0.0368  0.0286  1.0000  -6.8498   0.0000   0.0000   0.0000   0.2005
  14.250   1.1233   0.05629   0.05154   0.0357  0.0283  1.0000  -6.8346   0.0000   0.0000   0.0000   0.2005
  14.500   1.1074   0.06129   0.05675   0.0337  0.0282  1.0000  -6.7852   0.0000   0.0000   0.0000   0.2014
  14.750   1.0854   0.06764   0.06335   0.0303  0.0282  1.0000  -6.6776   0.0000   0.0000   0.0000   0.2033
  15.000   1.0529   0.07632   0.07231   0.0247  0.0283  1.0000  -6.4681   0.0000   0.0000   0.0000   0.2071
  15.250   1.0020   0.08942   0.08575   0.0157  0.0288  1.0000  -6.0712   0.0000   0.0000   0.0000   0.2144
  15.500   0.9234   0.11046   0.10711   0.0013  0.0299  1.0000  -5.3509   0.0000   0.0000   0.0000   0.2284
  17.000   0.4989   0.16852   0.16555  -0.0143  0.0430  1.0000  -1.3605   0.0000   0.0000   0.0000   0.2661
  17.250   0.5054   0.17050   0.16754  -0.0150  0.0418  1.0000  -1.4106   0.0000   0.0000   0.0000   0.2667
  17.500   0.5182   0.17220   0.16925  -0.0146  0.0411  1.0000  -1.5336   0.0000   0.0000   0.0000   0.2646
  17.750   0.5231   0.17542   0.17247  -0.0153  0.0407  1.0000  -1.5427   0.0000   0.0000   0.0000   0.2657
  18.000   0.5093   0.17950   0.17655  -0.0194  0.0385  1.0000  -1.3156   0.0000   0.0000   0.0000   0.2748
  18.250   0.5134   0.18198   0.17904  -0.0205  0.0373  1.0000  -1.3213   0.0000   0.0000   0.0000   0.2765
  18.500   0.5192   0.18417   0.18124  -0.0213  0.0365  1.0000  -1.3555   0.0000   0.0000   0.0000   0.2773
  18.750   0.5278   0.18626   0.18334  -0.0215  0.0360  1.0000  -1.4282   0.0000   0.0000   0.0000   0.2767
  19.000   0.5418   0.18923   0.18632  -0.0210  0.0357  1.0000  -1.5458   0.0000   0.0000   0.0000   0.2742
  19.250   0.5257   0.19317   0.19025  -0.0255  0.0344  1.0000  -1.2546   0.0000   0.0000   0.0000   0.2845
  19.500   0.5289   0.19594   0.19303  -0.0269  0.0331  1.0000  -1.2345   0.0000   0.0000   0.0000   0.2866
  19.750   0.5337   0.19833   0.19543  -0.0280  0.0321  1.0000  -1.2472   0.0000   0.0000   0.0000   0.2879
  20.000   0.5404   0.20041   0.19752  -0.0286  0.0314  1.0000  -1.2978   0.0000   0.0000   0.0000   0.2881


