xflr5 v6.61

 Calculated polar for: NACA 0012

 1 1 Reynolds number fixed          Mach number fixed         

 xtrf =   1.000 (top)        1.000 (bottom)
 Mach =   0.000     Re =     0.700 e 6     Ncrit =   9.000

  alpha     CL        CD       CDp       Cm    Top Xtr Bot Xtr   Cpmin    Chinge    XCp    
 ------- -------- --------- --------- -------- ------- ------- -------- --------- ---------
 -10.000  -1.0645   0.01701   0.01082  -0.0077  1.0000  0.0290  -5.3727   0.0000   0.0000   0.0000   0.2317
  -9.750  -1.0428   0.01656   0.01031  -0.0068  1.0000  0.0302  -5.1744   0.0000   0.0000   0.0000   0.2327
  -9.500  -1.0222   0.01600   0.00970  -0.0056  1.0000  0.0314  -4.9869   0.0000   0.0000   0.0000   0.2340
  -9.250  -1.0020   0.01544   0.00914  -0.0044  1.0000  0.0330  -4.7992   0.0000   0.0000   0.0000   0.2354
  -9.000  -0.9803   0.01504   0.00871  -0.0034  1.0000  0.0346  -4.6068   0.0000   0.0000   0.0000   0.2367
  -8.750  -0.9594   0.01460   0.00823  -0.0022  1.0000  0.0363  -4.4227   0.0000   0.0000   0.0000   0.2381
  -8.500  -0.9388   0.01415   0.00780  -0.0009  1.0000  0.0385  -4.2392   0.0000   0.0000   0.0000   0.2397
  -8.250  -0.9168   0.01385   0.00746   0.0002  1.0000  0.0407  -4.0534   0.0000   0.0000   0.0000   0.2412
  -8.000  -0.8970   0.01337   0.00699   0.0016  1.0000  0.0434  -3.8802   0.0000   0.0000   0.0000   0.2430
  -7.750  -0.8753   0.01308   0.00666   0.0028  1.0000  0.0461  -3.7126   0.0000   0.0000   0.0000   0.2447
  -7.500  -0.8552   0.01265   0.00627   0.0041  1.0000  0.0496  -3.5561   0.0000   0.0000   0.0000   0.2466
  -7.250  -0.8342   0.01233   0.00595   0.0054  1.0000  0.0535  -3.3988   0.0000   0.0000   0.0000   0.2485
  -6.750  -0.7924   0.01171   0.00535   0.0080  1.0000  0.0636  -3.0901   0.0000   0.0000   0.0000   0.2526
  -6.500  -0.7715   0.01140   0.00508   0.0093  1.0000  0.0699  -2.9396   0.0000   0.0000   0.0000   0.2548
  -6.250  -0.7504   0.01112   0.00483   0.0105  1.0000  0.0776  -2.7906   0.0000   0.0000   0.0000   0.2570
  -6.000  -0.7293   0.01082   0.00459   0.0117  1.0000  0.0870  -2.6519   0.0000   0.0000   0.0000   0.2593
  -5.500  -0.6603   0.01014   0.00407   0.0085  0.9964  0.1187  -2.3169   0.0000   0.0000   0.0000   0.2564
  -5.250  -0.6247   0.00978   0.00382   0.0066  0.9942  0.1403  -2.1518   0.0000   0.0000   0.0000   0.2543
  -5.000  -0.5890   0.00943   0.00359   0.0047  0.9919  0.1649  -1.9972   0.0000   0.0000   0.0000   0.2519
  -4.750  -0.5537   0.00908   0.00338   0.0029  0.9891  0.1929  -1.8522   0.0000   0.0000   0.0000   0.2493
  -4.500  -0.5170   0.00873   0.00318   0.0009  0.9871  0.2238  -1.7074   0.0000   0.0000   0.0000   0.2458
  -4.250  -0.4826   0.00840   0.00298  -0.0007  0.9834  0.2552  -1.5776   0.0000   0.0000   0.0000   0.2428
  -4.000  -0.4457   0.00808   0.00281  -0.0028  0.9810  0.2884  -1.4492   0.0000   0.0000   0.0000   0.2381
  -3.750  -0.4117   0.00779   0.00265  -0.0041  0.9766  0.3211  -1.3332   0.0000   0.0000   0.0000   0.2344
  -3.500  -0.3773   0.00750   0.00249  -0.0056  0.9726  0.3537  -1.2238   0.0000   0.0000   0.0000   0.2297
  -3.250  -0.3469   0.00725   0.00235  -0.0060  0.9653  0.3848  -1.1279   0.0000   0.0000   0.0000   0.2271
  -3.000  -0.3178   0.00702   0.00223  -0.0062  0.9568  0.4149  -1.0387   0.0000   0.0000   0.0000   0.2251
  -2.750  -0.2900   0.00680   0.00211  -0.0060  0.9470  0.4443  -0.9592   0.0000   0.0000   0.0000   0.2240
  -2.500  -0.2631   0.00661   0.00200  -0.0056  0.9358  0.4731  -0.8856   0.0000   0.0000   0.0000   0.2234
  -2.250  -0.2368   0.00643   0.00191  -0.0051  0.9228  0.5016  -0.8181   0.0000   0.0000   0.0000   0.2235
  -2.000  -0.2107   0.00628   0.00183  -0.0045  0.9082  0.5298  -0.7558   0.0000   0.0000   0.0000   0.2238
  -1.750  -0.1846   0.00614   0.00174  -0.0039  0.8926  0.5578  -0.6985   0.0000   0.0000   0.0000   0.2241
  -1.500  -0.1583   0.00603   0.00167  -0.0033  0.8755  0.5857  -0.6458   0.0000   0.0000   0.0000   0.2244
  -1.250  -0.1321   0.00592   0.00162  -0.0027  0.8566  0.6132  -0.5980   0.0000   0.0000   0.0000   0.2247
  -1.000  -0.1057   0.00584   0.00157  -0.0021  0.8367  0.6403  -0.5542   0.0000   0.0000   0.0000   0.2249
  -0.750  -0.0794   0.00578   0.00153  -0.0016  0.8153  0.6670  -0.5145   0.0000   0.0000   0.0000   0.2253
  -0.500  -0.0529   0.00574   0.00150  -0.0011  0.7926  0.6933  -0.4780   0.0000   0.0000   0.0000   0.2252
  -0.250  -0.0264   0.00571   0.00148  -0.0005  0.7692  0.7192  -0.4445   0.0000   0.0000   0.0000   0.2251
   0.000   0.0000   0.00571   0.00148  -0.0000  0.7447  0.7447  -0.4137   0.0000   0.0000   0.0000   0.4663
   0.250   0.0264   0.00571   0.00148   0.0005  0.7192  0.7692  -0.4445   0.0000   0.0000   0.0000   0.2251
   0.500   0.0529   0.00574   0.00150   0.0011  0.6933  0.7926  -0.4780   0.0000   0.0000   0.0000   0.2252
   0.750   0.0794   0.00578   0.00153   0.0016  0.6670  0.8153  -0.5145   0.0000   0.0000   0.0000   0.2253
   1.000   0.1057   0.00584   0.00157   0.0021  0.6403  0.8367  -0.5542   0.0000   0.0000   0.0000   0.2249
   1.250   0.1321   0.00592   0.00162   0.0027  0.6132  0.8566  -0.5980   0.0000   0.0000   0.0000   0.2247
   1.500   0.1583   0.00603   0.00167   0.0033  0.5857  0.8755  -0.6458   0.0000   0.0000   0.0000   0.2244
   1.750   0.1846   0.00614   0.00174   0.0039  0.5578  0.8926  -0.6985   0.0000   0.0000   0.0000   0.2241
   2.000   0.2107   0.00628   0.00183   0.0045  0.5298  0.9082  -0.7558   0.0000   0.0000   0.0000   0.2238
   2.250   0.2368   0.00643   0.00191   0.0051  0.5016  0.9228  -0.8181   0.0000   0.0000   0.0000   0.2235
   2.500   0.2631   0.00661   0.00200   0.0056  0.4731  0.9358  -0.8856   0.0000   0.0000   0.0000   0.2234
   2.750   0.2900   0.00680   0.00211   0.0060  0.4443  0.9470  -0.9592   0.0000   0.0000   0.0000   0.2240
   3.000   0.3178   0.00702   0.00223   0.0062  0.4149  0.9568  -1.0387   0.0000   0.0000   0.0000   0.2251
   3.250   0.3469   0.00725   0.00235   0.0060  0.3848  0.9653  -1.1279   0.0000   0.0000   0.0000   0.2271
   3.500   0.3773   0.00750   0.00249   0.0056  0.3537  0.9726  -1.2238   0.0000   0.0000   0.0000   0.2297
   3.750   0.4117   0.00779   0.00265   0.0041  0.3211  0.9766  -1.3332   0.0000   0.0000   0.0000   0.2344
   4.000   0.4457   0.00808   0.00281   0.0028  0.2884  0.9810  -1.4492   0.0000   0.0000   0.0000   0.2381
   4.250   0.4826   0.00840   0.00298   0.0007  0.2552  0.9834  -1.5776   0.0000   0.0000   0.0000   0.2428
   4.500   0.5170   0.00873   0.00318  -0.0009  0.2238  0.9871  -1.7074   0.0000   0.0000   0.0000   0.2458
   4.750   0.5537   0.00908   0.00338  -0.0029  0.1929  0.9891  -1.8522   0.0000   0.0000   0.0000   0.2493
   5.000   0.5890   0.00943   0.00359  -0.0047  0.1649  0.9919  -1.9972   0.0000   0.0000   0.0000   0.2519
   5.250   0.6247   0.00977   0.00382  -0.0066  0.1403  0.9942  -2.1519   0.0000   0.0000   0.0000   0.2543
   5.500   0.6603   0.01014   0.00407  -0.0085  0.1187  0.9965  -2.3170   0.0000   0.0000   0.0000   0.2564
   5.750   0.6958   0.01049   0.00432  -0.0103  0.1009  0.9985  -2.4855   0.0000   0.0000   0.0000   0.2582
   6.000   0.7292   0.01082   0.00459  -0.0117  0.0870  1.0000  -2.6517   0.0000   0.0000   0.0000   0.2593
   6.250   0.7503   0.01111   0.00482  -0.0105  0.0776  1.0000  -2.7903   0.0000   0.0000   0.0000   0.2570
   6.500   0.7715   0.01140   0.00508  -0.0093  0.0699  1.0000  -2.9393   0.0000   0.0000   0.0000   0.2548
   6.750   0.7923   0.01171   0.00535  -0.0080  0.0636  1.0000  -3.0898   0.0000   0.0000   0.0000   0.2526
   7.250   0.8342   0.01233   0.00594  -0.0054  0.0536  1.0000  -3.3986   0.0000   0.0000   0.0000   0.2485
   7.500   0.8551   0.01265   0.00627  -0.0041  0.0496  1.0000  -3.5559   0.0000   0.0000   0.0000   0.2466
   7.750   0.8753   0.01308   0.00666  -0.0027  0.0461  1.0000  -3.7124   0.0000   0.0000   0.0000   0.2446
   8.000   0.8969   0.01337   0.00699  -0.0016  0.0434  1.0000  -3.8800   0.0000   0.0000   0.0000   0.2430
   8.250   0.9168   0.01385   0.00746  -0.0002  0.0407  1.0000  -4.0532   0.0000   0.0000   0.0000   0.2411
   8.500   0.9388   0.01415   0.00779   0.0009  0.0385  1.0000  -4.2391   0.0000   0.0000   0.0000   0.2397
   8.750   0.9594   0.01460   0.00823   0.0022  0.0363  1.0000  -4.4226   0.0000   0.0000   0.0000   0.2381
   9.000   0.9803   0.01504   0.00871   0.0034  0.0346  1.0000  -4.6068   0.0000   0.0000   0.0000   0.2367
   9.250   1.0020   0.01544   0.00914   0.0044  0.0330  1.0000  -4.7993   0.0000   0.0000   0.0000   0.2354
   9.500   1.0223   0.01600   0.00970   0.0056  0.0314  1.0000  -4.9870   0.0000   0.0000   0.0000   0.2340
   9.750   1.0428   0.01656   0.01031   0.0067  0.0302  1.0000  -5.1746   0.0000   0.0000   0.0000   0.2328
  10.000   1.0646   0.01701   0.01082   0.0077  0.0290  1.0000  -5.3729   0.0000   0.0000   0.0000   0.2317
  10.250   1.0860   0.01750   0.01133   0.0086  0.0278  1.0000  -5.5757   0.0000   0.0000   0.0000   0.2307
  10.500   1.1033   0.01835   0.01219   0.0100  0.0265  1.0000  -5.7560   0.0000   0.0000   0.0000   0.2292
  10.750   1.1245   0.01885   0.01277   0.0110  0.0257  1.0000  -5.9718   0.0000   0.0000   0.0000   0.2282
  11.000   1.1450   0.01940   0.01338   0.0120  0.0248  1.0000  -6.1917   0.0000   0.0000   0.0000   0.2271
  11.250   1.1646   0.02000   0.01403   0.0130  0.0240  1.0000  -6.4117   0.0000   0.0000   0.0000   0.2260
  11.500   1.1831   0.02066   0.01473   0.0142  0.0233  1.0000  -6.6298   0.0000   0.0000   0.0000   0.2249
  11.750   1.1964   0.02171   0.01581   0.0159  0.0225  1.0000  -6.8158   0.0000   0.0000   0.0000   0.2232
  12.000   1.2106   0.02266   0.01684   0.0176  0.0220  1.0000  -7.0054   0.0000   0.0000   0.0000   0.2216
  12.250   1.2269   0.02337   0.01765   0.0190  0.0215  1.0000  -7.2138   0.0000   0.0000   0.0000   0.2203
  12.500   1.2396   0.02415   0.01852   0.0209  0.0210  1.0000  -7.4049   0.0000   0.0000   0.0000   0.2185
  12.750   1.2507   0.02501   0.01946   0.0230  0.0205  1.0000  -7.5901   0.0000   0.0000   0.0000   0.2166
  13.000   1.2614   0.02593   0.02045   0.0248  0.0201  1.0000  -7.7765   0.0000   0.0000   0.0000   0.2149
  13.250   1.2714   0.02694   0.02152   0.0264  0.0196  1.0000  -7.9628   0.0000   0.0000   0.0000   0.2133
  13.500   1.2792   0.02818   0.02282   0.0280  0.0192  1.0000  -8.1352   0.0000   0.0000   0.0000   0.2118
  13.750   1.2809   0.02999   0.02470   0.0297  0.0188  1.0000  -8.2622   0.0000   0.0000   0.0000   0.2100
  14.000   1.2790   0.03230   0.02712   0.0311  0.0184  1.0000  -8.3546   0.0000   0.0000   0.0000   0.2084
  14.250   1.2865   0.03391   0.02885   0.0317  0.0182  1.0000  -8.5176   0.0000   0.0000   0.0000   0.2076
  14.500   1.2913   0.03588   0.03094   0.0321  0.0180  1.0000  -8.6599   0.0000   0.0000   0.0000   0.2070
  14.750   1.2944   0.03820   0.03338   0.0320  0.0177  1.0000  -8.7868   0.0000   0.0000   0.0000   0.2065
  15.000   1.2957   0.04085   0.03616   0.0317  0.0175  1.0000  -8.8993   0.0000   0.0000   0.0000   0.2063
  15.250   1.2955   0.04385   0.03928   0.0309  0.0172  1.0000  -8.9987   0.0000   0.0000   0.0000   0.2063
  15.500   1.2937   0.04720   0.04276   0.0297  0.0170  1.0000  -9.0833   0.0000   0.0000   0.0000   0.2066
  15.750   1.2903   0.05094   0.04662   0.0282  0.0168  1.0000  -9.1525   0.0000   0.0000   0.0000   0.2072
  16.000   1.2850   0.05506   0.05086   0.0263  0.0166  1.0000  -9.2040   0.0000   0.0000   0.0000   0.2080
  16.250   1.2778   0.05958   0.05550   0.0242  0.0165  1.0000  -9.2411   0.0000   0.0000   0.0000   0.2090
  16.500   1.2688   0.06449   0.06053   0.0217  0.0164  1.0000  -9.2621   0.0000   0.0000   0.0000   0.2102
  16.750   1.2575   0.06979   0.06595   0.0191  0.0163  1.0000  -9.2593   0.0000   0.0000   0.0000   0.2116
  17.000   1.2449   0.07547   0.07175   0.0161  0.0162  1.0000  -9.2373   0.0000   0.0000   0.0000   0.2132
  17.250   1.2307   0.08152   0.07792   0.0130  0.0161  1.0000  -9.1938   0.0000   0.0000   0.0000   0.2150
  17.500   1.2152   0.08793   0.08444   0.0096  0.0160  1.0000  -9.1302   0.0000   0.0000   0.0000   0.2171
  17.750   1.1988   0.09466   0.09129   0.0061  0.0159  1.0000  -9.0488   0.0000   0.0000   0.0000   0.2194
  18.000   1.1814   0.10167   0.09842   0.0023  0.0159  1.0000  -8.9475   0.0000   0.0000   0.0000   0.2219
  18.250   1.1632   0.10899   0.10586  -0.0016  0.0158  1.0000  -8.8268   0.0000   0.0000   0.0000   0.2248
  18.500   1.1443   0.11666   0.11365  -0.0058  0.0158  1.0000  -8.6841   0.0000   0.0000   0.0000   0.2279
  18.750   1.1239   0.12474   0.12184  -0.0102  0.0157  1.0000  -8.5104   0.0000   0.0000   0.0000   0.2315
  19.000   1.1017   0.13351   0.13074  -0.0151  0.0157  1.0000  -8.2927   0.0000   0.0000   0.0000   0.2357
  19.250   1.0740   0.14385   0.14123  -0.0211  0.0157  1.0000  -7.9760   0.0000   0.0000   0.0000   0.2413


