xflr5 v6.61

 Calculated polar for: NACA 0012

 1 1 Reynolds number fixed          Mach number fixed         

 xtrf =   1.000 (top)        1.000 (bottom)
 Mach =   0.000     Re =     0.500 e 6     Ncrit =   9.000

  alpha     CL        CD       CDp       Cm    Top Xtr Bot Xtr   Cpmin    Chinge    XCp    
 ------- -------- --------- --------- -------- ------- ------- -------- --------- ---------
 -10.000  -1.0453   0.01930   0.01274  -0.0106  1.0000  0.0331  -5.2231   0.0000   0.0000   0.0000   0.2288
  -9.750  -1.0250   0.01872   0.01210  -0.0095  1.0000  0.0345  -5.0377   0.0000   0.0000   0.0000   0.2299
  -9.500  -1.0043   0.01815   0.01145  -0.0084  1.0000  0.0359  -4.8565   0.0000   0.0000   0.0000   0.2312
  -9.250  -0.9862   0.01738   0.01069  -0.0070  1.0000  0.0376  -4.6833   0.0000   0.0000   0.0000   0.2327
  -9.000  -0.9649   0.01691   0.01020  -0.0060  1.0000  0.0396  -4.4971   0.0000   0.0000   0.0000   0.2339
  -8.750  -0.9451   0.01632   0.00956  -0.0047  1.0000  0.0417  -4.3236   0.0000   0.0000   0.0000   0.2355
  -8.500  -0.9249   0.01581   0.00905  -0.0034  1.0000  0.0440  -4.1461   0.0000   0.0000   0.0000   0.2370
  -8.250  -0.9038   0.01539   0.00858  -0.0022  1.0000  0.0465  -3.9712   0.0000   0.0000   0.0000   0.2385
  -8.000  -0.8846   0.01483   0.00804  -0.0007  1.0000  0.0494  -3.8035   0.0000   0.0000   0.0000   0.2404
  -7.750  -0.8639   0.01441   0.00759   0.0006  1.0000  0.0528  -3.6469   0.0000   0.0000   0.0000   0.2421
  -7.500  -0.8434   0.01399   0.00719   0.0019  1.0000  0.0568  -3.4913   0.0000   0.0000   0.0000   0.2440
  -7.250  -0.8232   0.01355   0.00676   0.0032  1.0000  0.0613  -3.3404   0.0000   0.0000   0.0000   0.2459
  -7.000  -0.8027   0.01315   0.00638   0.0046  1.0000  0.0665  -3.1903   0.0000   0.0000   0.0000   0.2480
  -6.750  -0.7822   0.01278   0.00602   0.0059  1.0000  0.0729  -3.0412   0.0000   0.0000   0.0000   0.2501
  -6.500  -0.7616   0.01241   0.00569   0.0072  1.0000  0.0806  -2.8940   0.0000   0.0000   0.0000   0.2522
  -6.250  -0.7409   0.01205   0.00538   0.0085  1.0000  0.0900  -2.7487   0.0000   0.0000   0.0000   0.2545
  -6.000  -0.7200   0.01172   0.00510   0.0098  1.0000  0.1013  -2.6157   0.0000   0.0000   0.0000   0.2567
  -5.750  -0.6991   0.01138   0.00483   0.0110  1.0000  0.1155  -2.4850   0.0000   0.0000   0.0000   0.2591
  -5.500  -0.6780   0.01105   0.00459   0.0121  1.0000  0.1324  -2.3555   0.0000   0.0000   0.0000   0.2615
  -5.250  -0.6566   0.01075   0.00438   0.0132  1.0000  0.1522  -2.2272   0.0000   0.0000   0.0000   0.2639
  -5.000  -0.6293   0.01041   0.00417   0.0130  0.9991  0.1771  -2.0864   0.0000   0.0000   0.0000   0.2646
  -4.750  -0.5922   0.01004   0.00395   0.0108  0.9966  0.2090  -1.9358   0.0000   0.0000   0.0000   0.2623
  -4.500  -0.5550   0.00969   0.00375   0.0085  0.9937  0.2435  -1.7881   0.0000   0.0000   0.0000   0.2596
  -4.250  -0.5182   0.00935   0.00357   0.0064  0.9904  0.2791  -1.6467   0.0000   0.0000   0.0000   0.2567
  -4.000  -0.4804   0.00902   0.00340   0.0041  0.9875  0.3159  -1.5151   0.0000   0.0000   0.0000   0.2530
  -3.750  -0.4441   0.00872   0.00324   0.0022  0.9834  0.3517  -1.3897   0.0000   0.0000   0.0000   0.2495
  -3.250  -0.3695   0.00814   0.00294  -0.0020  0.9758  0.4231  -1.1630   0.0000   0.0000   0.0000   0.2392
  -3.000  -0.3313   0.00787   0.00280  -0.0042  0.9725  0.4581  -1.0592   0.0000   0.0000   0.0000   0.2319
  -2.750  -0.2984   0.00761   0.00268  -0.0052  0.9656  0.4905  -0.9709   0.0000   0.0000   0.0000   0.2272
  -2.500  -0.2668   0.00738   0.00255  -0.0059  0.9577  0.5220  -0.8905   0.0000   0.0000   0.0000   0.2228
  -2.250  -0.2369   0.00717   0.00244  -0.0061  0.9484  0.5524  -0.8183   0.0000   0.0000   0.0000   0.2192
  -2.000  -0.2087   0.00697   0.00235  -0.0059  0.9375  0.5819  -0.7537   0.0000   0.0000   0.0000   0.2166
  -1.750  -0.1815   0.00679   0.00225  -0.0054  0.9252  0.6105  -0.6955   0.0000   0.0000   0.0000   0.2151
  -1.500  -0.1555   0.00663   0.00218  -0.0047  0.9106  0.6385  -0.6432   0.0000   0.0000   0.0000   0.2147
  -1.250  -0.1296   0.00650   0.00211  -0.0039  0.8946  0.6660  -0.5960   0.0000   0.0000   0.0000   0.2147
  -1.000  -0.1036   0.00639   0.00205  -0.0031  0.8779  0.6930  -0.5526   0.0000   0.0000   0.0000   0.2147
  -0.750  -0.0778   0.00630   0.00201  -0.0024  0.8587  0.7194  -0.5134   0.0000   0.0000   0.0000   0.2148
  -0.500  -0.0518   0.00624   0.00197  -0.0016  0.8388  0.7454  -0.4773   0.0000   0.0000   0.0000   0.2147
  -0.250  -0.0260   0.00620   0.00195  -0.0008  0.8170  0.7703  -0.4442   0.0000   0.0000   0.0000   0.2150
   0.000   0.0000   0.00618   0.00195  -0.0000  0.7941  0.7941  -0.4136   0.0000   0.0000   0.0000   0.4363
   0.250   0.0260   0.00620   0.00195   0.0008  0.7703  0.8170  -0.4442   0.0000   0.0000   0.0000   0.2150
   0.500   0.0518   0.00624   0.00197   0.0016  0.7454  0.8388  -0.4773   0.0000   0.0000   0.0000   0.2147
   0.750   0.0778   0.00630   0.00201   0.0024  0.7194  0.8587  -0.5134   0.0000   0.0000   0.0000   0.2148
   1.000   0.1036   0.00639   0.00205   0.0031  0.6929  0.8779  -0.5526   0.0000   0.0000   0.0000   0.2147
   1.250   0.1296   0.00650   0.00211   0.0039  0.6660  0.8946  -0.5960   0.0000   0.0000   0.0000   0.2147
   1.500   0.1555   0.00663   0.00218   0.0047  0.6385  0.9106  -0.6432   0.0000   0.0000   0.0000   0.2147
   1.750   0.1815   0.00679   0.00225   0.0054  0.6105  0.9252  -0.6955   0.0000   0.0000   0.0000   0.2151
   2.000   0.2087   0.00697   0.00235   0.0059  0.5819  0.9375  -0.7537   0.0000   0.0000   0.0000   0.2166
   2.250   0.2369   0.00717   0.00244   0.0061  0.5524  0.9484  -0.8183   0.0000   0.0000   0.0000   0.2192
   2.500   0.2668   0.00738   0.00255   0.0059  0.5220  0.9577  -0.8905   0.0000   0.0000   0.0000   0.2228
   2.750   0.2984   0.00761   0.00268   0.0052  0.4905  0.9656  -0.9709   0.0000   0.0000   0.0000   0.2272
   3.000   0.3313   0.00787   0.00280   0.0042  0.4581  0.9725  -1.0592   0.0000   0.0000   0.0000   0.2319
   3.250   0.3695   0.00814   0.00294   0.0020  0.4231  0.9758  -1.1630   0.0000   0.0000   0.0000   0.2392
   3.500   0.4055   0.00843   0.00309   0.0002  0.3883  0.9806  -1.2717   0.0000   0.0000   0.0000   0.2441
   3.750   0.4441   0.00872   0.00324  -0.0022  0.3517  0.9834  -1.3897   0.0000   0.0000   0.0000   0.2495
   4.000   0.4804   0.00902   0.00340  -0.0041  0.3158  0.9875  -1.5151   0.0000   0.0000   0.0000   0.2530
   4.250   0.5182   0.00934   0.00357  -0.0064  0.2791  0.9904  -1.6467   0.0000   0.0000   0.0000   0.2567
   4.500   0.5550   0.00969   0.00375  -0.0085  0.2435  0.9937  -1.7882   0.0000   0.0000   0.0000   0.2596
   4.750   0.5922   0.01004   0.00395  -0.0108  0.2091  0.9966  -1.9358   0.0000   0.0000   0.0000   0.2623
   5.000   0.6294   0.01041   0.00417  -0.0130  0.1771  0.9991  -2.0864   0.0000   0.0000   0.0000   0.2647
   5.250   0.6565   0.01074   0.00438  -0.0132  0.1522  1.0000  -2.2269   0.0000   0.0000   0.0000   0.2639
   5.500   0.6779   0.01105   0.00459  -0.0121  0.1325  1.0000  -2.3553   0.0000   0.0000   0.0000   0.2615
   5.750   0.6991   0.01138   0.00483  -0.0110  0.1155  1.0000  -2.4848   0.0000   0.0000   0.0000   0.2591
   6.000   0.7199   0.01172   0.00510  -0.0098  0.1013  1.0000  -2.6155   0.0000   0.0000   0.0000   0.2567
   6.250   0.7409   0.01205   0.00538  -0.0085  0.0900  1.0000  -2.7485   0.0000   0.0000   0.0000   0.2544
   6.500   0.7615   0.01241   0.00569  -0.0072  0.0806  1.0000  -2.8938   0.0000   0.0000   0.0000   0.2522
   6.750   0.7821   0.01278   0.00602  -0.0059  0.0729  1.0000  -3.0410   0.0000   0.0000   0.0000   0.2500
   7.000   0.8027   0.01315   0.00638  -0.0046  0.0665  1.0000  -3.1901   0.0000   0.0000   0.0000   0.2480
   7.250   0.8232   0.01354   0.00676  -0.0032  0.0613  1.0000  -3.3402   0.0000   0.0000   0.0000   0.2459
   7.500   0.8433   0.01399   0.00719  -0.0019  0.0568  1.0000  -3.4912   0.0000   0.0000   0.0000   0.2439
   7.750   0.8638   0.01441   0.00759  -0.0006  0.0528  1.0000  -3.6468   0.0000   0.0000   0.0000   0.2421
   8.000   0.8846   0.01483   0.00804   0.0007  0.0494  1.0000  -3.8034   0.0000   0.0000   0.0000   0.2404
   8.250   0.9038   0.01539   0.00858   0.0022  0.0465  1.0000  -3.9711   0.0000   0.0000   0.0000   0.2385
   8.500   0.9249   0.01581   0.00905   0.0034  0.0440  1.0000  -4.1461   0.0000   0.0000   0.0000   0.2370
   8.750   0.9451   0.01632   0.00956   0.0047  0.0417  1.0000  -4.3236   0.0000   0.0000   0.0000   0.2355
   9.000   0.9649   0.01691   0.01020   0.0060  0.0396  1.0000  -4.4971   0.0000   0.0000   0.0000   0.2339
   9.250   0.9863   0.01737   0.01069   0.0070  0.0376  1.0000  -4.6835   0.0000   0.0000   0.0000   0.2327
   9.500   1.0044   0.01815   0.01145   0.0084  0.0359  1.0000  -4.8567   0.0000   0.0000   0.0000   0.2312
   9.750   1.0250   0.01872   0.01210   0.0095  0.0345  1.0000  -5.0380   0.0000   0.0000   0.0000   0.2299
  10.000   1.0454   0.01930   0.01274   0.0106  0.0331  1.0000  -5.2234   0.0000   0.0000   0.0000   0.2288
  10.250   1.0647   0.01996   0.01342   0.0117  0.0319  1.0000  -5.4094   0.0000   0.0000   0.0000   0.2276
  10.500   1.0799   0.02104   0.01451   0.0134  0.0307  1.0000  -5.5688   0.0000   0.0000   0.0000   0.2259
  10.750   1.0998   0.02162   0.01521   0.0144  0.0297  1.0000  -5.7692   0.0000   0.0000   0.0000   0.2248
  11.000   1.1185   0.02229   0.01595   0.0156  0.0286  1.0000  -5.9739   0.0000   0.0000   0.0000   0.2236
  11.250   1.1362   0.02299   0.01669   0.0168  0.0277  1.0000  -6.1801   0.0000   0.0000   0.0000   0.2224
  11.500   1.1502   0.02401   0.01772   0.0184  0.0268  1.0000  -6.3661   0.0000   0.0000   0.0000   0.2208
  11.750   1.1623   0.02522   0.01902   0.0203  0.0261  1.0000  -6.5310   0.0000   0.0000   0.0000   0.2191
  12.000   1.1754   0.02607   0.01998   0.0221  0.0255  1.0000  -6.7096   0.0000   0.0000   0.0000   0.2173
  12.250   1.1862   0.02703   0.02106   0.0242  0.0249  1.0000  -6.8775   0.0000   0.0000   0.0000   0.2154
  12.500   1.1961   0.02807   0.02219   0.0261  0.0243  1.0000  -7.0442   0.0000   0.0000   0.0000   0.2136
  12.750   1.2055   0.02918   0.02338   0.0278  0.0238  1.0000  -7.2110   0.0000   0.0000   0.0000   0.2119
  13.000   1.2140   0.03041   0.02467   0.0294  0.0233  1.0000  -7.3748   0.0000   0.0000   0.0000   0.2104
  13.250   1.2206   0.03189   0.02621   0.0308  0.0229  1.0000  -7.5264   0.0000   0.0000   0.0000   0.2089
  13.500   1.2227   0.03401   0.02840   0.0323  0.0224  1.0000  -7.6376   0.0000   0.0000   0.0000   0.2073
  13.750   1.2249   0.03613   0.03067   0.0334  0.0221  1.0000  -7.7440   0.0000   0.0000   0.0000   0.2060
  14.000   1.2285   0.03809   0.03279   0.0340  0.0218  1.0000  -7.8657   0.0000   0.0000   0.0000   0.2051
  14.250   1.2306   0.04036   0.03522   0.0342  0.0214  1.0000  -7.9758   0.0000   0.0000   0.0000   0.2045
  14.500   1.2314   0.04292   0.03793   0.0341  0.0211  1.0000  -8.0761   0.0000   0.0000   0.0000   0.2041
  14.750   1.2309   0.04579   0.04094   0.0335  0.0207  1.0000  -8.1656   0.0000   0.0000   0.0000   0.2040
  15.000   1.2290   0.04900   0.04429   0.0326  0.0204  1.0000  -8.2425   0.0000   0.0000   0.0000   0.2042
  15.250   1.2258   0.05254   0.04797   0.0312  0.0202  1.0000  -8.3079   0.0000   0.0000   0.0000   0.2047
  15.500   1.2210   0.05643   0.05199   0.0295  0.0199  1.0000  -8.3573   0.0000   0.0000   0.0000   0.2054
  15.750   1.2146   0.06070   0.05638   0.0275  0.0198  1.0000  -8.3903   0.0000   0.0000   0.0000   0.2063
  16.000   1.2065   0.06534   0.06114   0.0252  0.0196  1.0000  -8.4057   0.0000   0.0000   0.0000   0.2075
  16.250   1.1966   0.07037   0.06630   0.0226  0.0195  1.0000  -8.4058   0.0000   0.0000   0.0000   0.2090
  16.500   1.1850   0.07584   0.07190   0.0197  0.0193  1.0000  -8.3882   0.0000   0.0000   0.0000   0.2107
  16.750   1.1713   0.08181   0.07800   0.0164  0.0192  1.0000  -8.3445   0.0000   0.0000   0.0000   0.2127
  17.000   1.1555   0.08839   0.08472   0.0127  0.0192  1.0000  -8.2698   0.0000   0.0000   0.0000   0.2152
  17.250   1.1367   0.09573   0.09220   0.0085  0.0191  1.0000  -8.1547   0.0000   0.0000   0.0000   0.2182
  17.500   1.1134   0.10422   0.10086   0.0036  0.0191  1.0000  -7.9773   0.0000   0.0000   0.0000   0.2219
  17.750   1.0793   0.11541   0.11227  -0.0032  0.0192  1.0000  -7.6543   0.0000   0.0000   0.0000   0.2276
  20.000   0.8273   0.24347   0.24094  -0.0706  0.0200  1.0000  -2.0464   0.0000   0.0000   0.0000   0.3124


