xflr5 v6.61

 Calculated polar for: NACA 0012

 1 1 Reynolds number fixed          Mach number fixed         

 xtrf =   1.000 (top)        1.000 (bottom)
 Mach =   0.000     Re =     0.520 e 6     Ncrit =   9.000

  alpha     CL        CD       CDp       Cm    Top Xtr Bot Xtr   Cpmin    Chinge    XCp    
 ------- -------- --------- --------- -------- ------- ------- -------- --------- ---------
 -10.000  -1.0480   0.01897   0.01245  -0.0102  1.0000  0.0326  -5.2453   0.0000   0.0000   0.0000   0.2292
  -9.750  -1.0277   0.01840   0.01184  -0.0091  1.0000  0.0339  -5.0571   0.0000   0.0000   0.0000   0.2303
  -9.500  -1.0064   0.01789   0.01126  -0.0081  1.0000  0.0354  -4.8705   0.0000   0.0000   0.0000   0.2315
  -9.250  -0.9883   0.01712   0.01047  -0.0067  1.0000  0.0370  -4.6999   0.0000   0.0000   0.0000   0.2331
  -9.000  -0.9672   0.01664   0.00998  -0.0056  1.0000  0.0389  -4.5127   0.0000   0.0000   0.0000   0.2343
  -8.750  -0.9456   0.01622   0.00949  -0.0045  1.0000  0.0409  -4.3294   0.0000   0.0000   0.0000   0.2356
  -8.500  -0.9268   0.01558   0.00887  -0.0031  1.0000  0.0433  -4.1590   0.0000   0.0000   0.0000   0.2374
  -8.250  -0.9056   0.01519   0.00844  -0.0019  1.0000  0.0458  -3.9814   0.0000   0.0000   0.0000   0.2389
  -8.000  -0.8863   0.01463   0.00789  -0.0004  1.0000  0.0486  -3.8141   0.0000   0.0000   0.0000   0.2407
  -7.750  -0.8647   0.01429   0.00751   0.0007  1.0000  0.0519  -3.6527   0.0000   0.0000   0.0000   0.2424
  -7.500  -0.8450   0.01380   0.00706   0.0022  1.0000  0.0559  -3.4999   0.0000   0.0000   0.0000   0.2443
  -7.250  -0.8245   0.01339   0.00665   0.0035  1.0000  0.0603  -3.3477   0.0000   0.0000   0.0000   0.2463
  -7.000  -0.8038   0.01302   0.00629   0.0048  1.0000  0.0655  -3.1963   0.0000   0.0000   0.0000   0.2483
  -6.750  -0.7832   0.01266   0.00594   0.0062  1.0000  0.0717  -3.0466   0.0000   0.0000   0.0000   0.2503
  -6.500  -0.7627   0.01229   0.00561   0.0075  1.0000  0.0793  -2.8993   0.0000   0.0000   0.0000   0.2525
  -6.250  -0.7421   0.01193   0.00531   0.0088  1.0000  0.0884  -2.7538   0.0000   0.0000   0.0000   0.2548
  -6.000  -0.7211   0.01161   0.00503   0.0100  1.0000  0.0996  -2.6201   0.0000   0.0000   0.0000   0.2571
  -5.750  -0.7002   0.01127   0.00477   0.0112  1.0000  0.1132  -2.4891   0.0000   0.0000   0.0000   0.2594
  -5.500  -0.6790   0.01095   0.00453   0.0123  1.0000  0.1298  -2.3592   0.0000   0.0000   0.0000   0.2618
  -5.250  -0.6575   0.01065   0.00433   0.0134  1.0000  0.1490  -2.2306   0.0000   0.0000   0.0000   0.2642
  -5.000  -0.6239   0.01029   0.00410   0.0119  0.9982  0.1760  -2.0743   0.0000   0.0000   0.0000   0.2630
  -4.750  -0.5871   0.00992   0.00388   0.0097  0.9955  0.2074  -1.9246   0.0000   0.0000   0.0000   0.2607
  -4.500  -0.5497   0.00957   0.00368   0.0074  0.9930  0.2414  -1.7768   0.0000   0.0000   0.0000   0.2578
  -4.250  -0.5134   0.00923   0.00350   0.0054  0.9894  0.2765  -1.6373   0.0000   0.0000   0.0000   0.2550
  -4.000  -0.4756   0.00891   0.00332   0.0031  0.9867  0.3128  -1.5061   0.0000   0.0000   0.0000   0.2511
  -3.750  -0.4395   0.00861   0.00316   0.0013  0.9825  0.3485  -1.3814   0.0000   0.0000   0.0000   0.2475
  -3.500  -0.4013   0.00830   0.00301  -0.0011  0.9798  0.3847  -1.2644   0.0000   0.0000   0.0000   0.2420
  -3.250  -0.3652   0.00802   0.00286  -0.0029  0.9751  0.4191  -1.1563   0.0000   0.0000   0.0000   0.2369
  -3.000  -0.3297   0.00775   0.00273  -0.0045  0.9703  0.4532  -1.0567   0.0000   0.0000   0.0000   0.2311
  -2.750  -0.2955   0.00751   0.00260  -0.0058  0.9645  0.4858  -0.9668   0.0000   0.0000   0.0000   0.2253
  -2.500  -0.2648   0.00727   0.00247  -0.0062  0.9561  0.5166  -0.8880   0.0000   0.0000   0.0000   0.2215
  -2.250  -0.2358   0.00706   0.00237  -0.0062  0.9463  0.5467  -0.8169   0.0000   0.0000   0.0000   0.2185
  -2.000  -0.2080   0.00687   0.00227  -0.0059  0.9352  0.5759  -0.7529   0.0000   0.0000   0.0000   0.2165
  -1.750  -0.1819   0.00670   0.00218  -0.0052  0.9214  0.6042  -0.6958   0.0000   0.0000   0.0000   0.2161
  -1.500  -0.1557   0.00655   0.00211  -0.0045  0.9066  0.6323  -0.6434   0.0000   0.0000   0.0000   0.2158
  -1.250  -0.1297   0.00642   0.00204  -0.0038  0.8910  0.6599  -0.5961   0.0000   0.0000   0.0000   0.2157
  -1.000  -0.1038   0.00631   0.00198  -0.0030  0.8731  0.6871  -0.5528   0.0000   0.0000   0.0000   0.2158
  -0.750  -0.0780   0.00622   0.00194  -0.0023  0.8543  0.7136  -0.5135   0.0000   0.0000   0.0000   0.2162
  -0.500  -0.0520   0.00616   0.00191  -0.0015  0.8334  0.7393  -0.4774   0.0000   0.0000   0.0000   0.2163
  -0.250  -0.0260   0.00612   0.00189  -0.0007  0.8118  0.7643  -0.4442   0.0000   0.0000   0.0000   0.2167
   0.000   0.0000   0.00611   0.00188  -0.0000  0.7886  0.7886  -0.4136   0.0000   0.0000   0.0000   0.3392
   0.250   0.0260   0.00612   0.00189   0.0007  0.7643  0.8118  -0.4442   0.0000   0.0000   0.0000   0.2167
   0.500   0.0520   0.00616   0.00191   0.0015  0.7393  0.8334  -0.4774   0.0000   0.0000   0.0000   0.2163
   0.750   0.0780   0.00622   0.00194   0.0023  0.7136  0.8543  -0.5135   0.0000   0.0000   0.0000   0.2162
   1.000   0.1038   0.00631   0.00198   0.0030  0.6871  0.8730  -0.5528   0.0000   0.0000   0.0000   0.2158
   1.250   0.1297   0.00642   0.00203   0.0038  0.6599  0.8910  -0.5961   0.0000   0.0000   0.0000   0.2157
   1.500   0.1557   0.00655   0.00211   0.0045  0.6323  0.9066  -0.6434   0.0000   0.0000   0.0000   0.2158
   1.750   0.1819   0.00670   0.00218   0.0052  0.6042  0.9214  -0.6958   0.0000   0.0000   0.0000   0.2161
   2.000   0.2080   0.00687   0.00227   0.0059  0.5759  0.9352  -0.7529   0.0000   0.0000   0.0000   0.2165
   2.250   0.2358   0.00706   0.00237   0.0062  0.5467  0.9463  -0.8169   0.0000   0.0000   0.0000   0.2185
   2.500   0.2648   0.00727   0.00247   0.0062  0.5166  0.9561  -0.8880   0.0000   0.0000   0.0000   0.2215
   2.750   0.2955   0.00751   0.00260   0.0058  0.4858  0.9645  -0.9668   0.0000   0.0000   0.0000   0.2253
   3.000   0.3297   0.00775   0.00273   0.0045  0.4532  0.9703  -1.0567   0.0000   0.0000   0.0000   0.2311
   3.250   0.3652   0.00802   0.00286   0.0029  0.4191  0.9751  -1.1563   0.0000   0.0000   0.0000   0.2369
   3.500   0.4012   0.00830   0.00301   0.0011  0.3847  0.9798  -1.2644   0.0000   0.0000   0.0000   0.2420
   4.000   0.4756   0.00891   0.00332  -0.0031  0.3129  0.9868  -1.5060   0.0000   0.0000   0.0000   0.2511
   4.250   0.5134   0.00923   0.00350  -0.0054  0.2765  0.9894  -1.6373   0.0000   0.0000   0.0000   0.2550
   4.500   0.5497   0.00957   0.00368  -0.0074  0.2414  0.9930  -1.7768   0.0000   0.0000   0.0000   0.2578
   4.750   0.5871   0.00992   0.00388  -0.0097  0.2074  0.9955  -1.9247   0.0000   0.0000   0.0000   0.2607
   5.000   0.6239   0.01029   0.00410  -0.0119  0.1760  0.9982  -2.0743   0.0000   0.0000   0.0000   0.2630
   5.250   0.6574   0.01065   0.00432  -0.0134  0.1491  1.0000  -2.2304   0.0000   0.0000   0.0000   0.2641
   5.500   0.6789   0.01095   0.00453  -0.0123  0.1298  1.0000  -2.3590   0.0000   0.0000   0.0000   0.2617
   5.750   0.7001   0.01127   0.00476  -0.0112  0.1133  1.0000  -2.4889   0.0000   0.0000   0.0000   0.2594
   6.000   0.7211   0.01160   0.00503  -0.0100  0.0996  1.0000  -2.6199   0.0000   0.0000   0.0000   0.2570
   6.250   0.7420   0.01193   0.00531  -0.0088  0.0884  1.0000  -2.7536   0.0000   0.0000   0.0000   0.2547
   6.500   0.7626   0.01229   0.00561  -0.0075  0.0793  1.0000  -2.8991   0.0000   0.0000   0.0000   0.2525
   6.750   0.7831   0.01266   0.00594  -0.0061  0.0717  1.0000  -3.0464   0.0000   0.0000   0.0000   0.2503
   7.000   0.8038   0.01302   0.00629  -0.0048  0.0655  1.0000  -3.1961   0.0000   0.0000   0.0000   0.2482
   7.250   0.8245   0.01339   0.00665  -0.0035  0.0603  1.0000  -3.3475   0.0000   0.0000   0.0000   0.2462
   7.500   0.8449   0.01380   0.00706  -0.0021  0.0559  1.0000  -3.4998   0.0000   0.0000   0.0000   0.2443
   7.750   0.8647   0.01429   0.00751  -0.0007  0.0519  1.0000  -3.6525   0.0000   0.0000   0.0000   0.2423
   8.000   0.8862   0.01463   0.00789   0.0004  0.0486  1.0000  -3.8140   0.0000   0.0000   0.0000   0.2407
   8.250   0.9055   0.01519   0.00844   0.0019  0.0458  1.0000  -3.9813   0.0000   0.0000   0.0000   0.2389
   8.500   0.9268   0.01558   0.00887   0.0031  0.0433  1.0000  -4.1589   0.0000   0.0000   0.0000   0.2374
   8.750   0.9456   0.01622   0.00949   0.0045  0.0409  1.0000  -4.3294   0.0000   0.0000   0.0000   0.2356
   9.000   0.9672   0.01664   0.00998   0.0056  0.0389  1.0000  -4.5128   0.0000   0.0000   0.0000   0.2343
   9.250   0.9883   0.01711   0.01047   0.0067  0.0370  1.0000  -4.7001   0.0000   0.0000   0.0000   0.2331
   9.500   1.0065   0.01789   0.01126   0.0081  0.0354  1.0000  -4.8708   0.0000   0.0000   0.0000   0.2315
   9.750   1.0277   0.01840   0.01184   0.0091  0.0339  1.0000  -5.0574   0.0000   0.0000   0.0000   0.2304
  10.000   1.0481   0.01897   0.01245   0.0102  0.0325  1.0000  -5.2456   0.0000   0.0000   0.0000   0.2292
  10.250   1.0660   0.01977   0.01325   0.0115  0.0313  1.0000  -5.4241   0.0000   0.0000   0.0000   0.2278
  10.500   1.0837   0.02060   0.01415   0.0129  0.0303  1.0000  -5.5955   0.0000   0.0000   0.0000   0.2264
  10.750   1.1034   0.02121   0.01485   0.0140  0.0292  1.0000  -5.7976   0.0000   0.0000   0.0000   0.2253
  11.000   1.1223   0.02185   0.01554   0.0151  0.0281  1.0000  -6.0066   0.0000   0.0000   0.0000   0.2241
  11.250   1.1393   0.02262   0.01633   0.0164  0.0272  1.0000  -6.2104   0.0000   0.0000   0.0000   0.2228
  11.500   1.1505   0.02394   0.01769   0.0184  0.0263  1.0000  -6.3721   0.0000   0.0000   0.0000   0.2209
  11.750   1.1670   0.02469   0.01856   0.0197  0.0257  1.0000  -6.5677   0.0000   0.0000   0.0000   0.2196
  12.000   1.1803   0.02555   0.01953   0.0215  0.0251  1.0000  -6.7491   0.0000   0.0000   0.0000   0.2179
  12.250   1.1913   0.02647   0.02054   0.0236  0.0245  1.0000  -6.9219   0.0000   0.0000   0.0000   0.2160
  12.500   1.2016   0.02745   0.02160   0.0255  0.0239  1.0000  -7.0946   0.0000   0.0000   0.0000   0.2142
  12.750   1.2111   0.02854   0.02274   0.0272  0.0234  1.0000  -7.2654   0.0000   0.0000   0.0000   0.2125
  13.000   1.2186   0.02986   0.02411   0.0289  0.0229  1.0000  -7.4244   0.0000   0.0000   0.0000   0.2108
  13.250   1.2213   0.03179   0.02610   0.0307  0.0224  1.0000  -7.5424   0.0000   0.0000   0.0000   0.2090
  13.500   1.2250   0.03366   0.02812   0.0321  0.0221  1.0000  -7.6613   0.0000   0.0000   0.0000   0.2075
  13.750   1.2305   0.03535   0.02996   0.0330  0.0218  1.0000  -7.7976   0.0000   0.0000   0.0000   0.2064
  14.000   1.2345   0.03730   0.03205   0.0336  0.0214  1.0000  -7.9238   0.0000   0.0000   0.0000   0.2055
  14.250   1.2374   0.03950   0.03439   0.0338  0.0210  1.0000  -8.0422   0.0000   0.0000   0.0000   0.2049
  14.500   1.2389   0.04197   0.03700   0.0337  0.0206  1.0000  -8.1508   0.0000   0.0000   0.0000   0.2045
  14.750   1.2395   0.04471   0.03986   0.0332  0.0203  1.0000  -8.2526   0.0000   0.0000   0.0000   0.2044
  15.000   1.2389   0.04772   0.04299   0.0324  0.0200  1.0000  -8.3450   0.0000   0.0000   0.0000   0.2045
  15.250   1.2372   0.05104   0.04643   0.0312  0.0198  1.0000  -8.4258   0.0000   0.0000   0.0000   0.2049
  15.500   1.2338   0.05470   0.05019   0.0297  0.0195  1.0000  -8.4912   0.0000   0.0000   0.0000   0.2055
  15.750   1.2288   0.05869   0.05429   0.0279  0.0193  1.0000  -8.5409   0.0000   0.0000   0.0000   0.2063
  16.000   1.2221   0.06304   0.05874   0.0259  0.0192  1.0000  -8.5724   0.0000   0.0000   0.0000   0.2072
  16.250   1.2130   0.06780   0.06362   0.0236  0.0190  1.0000  -8.5829   0.0000   0.0000   0.0000   0.2084
  16.500   1.2014   0.07309   0.06902   0.0210  0.0189  1.0000  -8.5690   0.0000   0.0000   0.0000   0.2098
  16.750   1.1869   0.07898   0.07504   0.0181  0.0188  1.0000  -8.5205   0.0000   0.0000   0.0000   0.2115
  17.000   1.1694   0.08559   0.08181   0.0146  0.0187  1.0000  -8.4332   0.0000   0.0000   0.0000   0.2137
  17.250   1.1492   0.09298   0.08935   0.0105  0.0186  1.0000  -8.3071   0.0000   0.0000   0.0000   0.2165
  17.500   1.1268   0.10106   0.09760   0.0058  0.0186  1.0000  -8.1458   0.0000   0.0000   0.0000   0.2199
  17.750   1.1029   0.10987   0.10657   0.0006  0.0185  1.0000  -7.9503   0.0000   0.0000   0.0000   0.2241
  18.000   1.0769   0.11949   0.11637  -0.0052  0.0186  1.0000  -7.7108   0.0000   0.0000   0.0000   0.2290
  18.250   1.0447   0.13108   0.12815  -0.0123  0.0187  1.0000  -7.3659   0.0000   0.0000   0.0000   0.2356
  19.250   0.5320   0.19082   0.18860  -0.0257  0.0234  1.0000  -1.3958   0.0000   0.0000   0.0000   0.2839
  19.500   0.5375   0.19292   0.19071  -0.0267  0.0229  1.0000  -1.4334   0.0000   0.0000   0.0000   0.2848
  19.750   0.5440   0.19484   0.19264  -0.0274  0.0226  1.0000  -1.4933   0.0000   0.0000   0.0000   0.2852
  20.000   0.5530   0.19668   0.19449  -0.0277  0.0224  1.0000  -1.5900   0.0000   0.0000   0.0000   0.2843


