xflr5 v6.61

 Calculated polar for: NACA 0012

 1 1 Reynolds number fixed          Mach number fixed         

 xtrf =   1.000 (top)        1.000 (bottom)
 Mach =   0.000     Re =     0.360 e 6     Ncrit =   9.000

  alpha     CL        CD       CDp       Cm    Top Xtr Bot Xtr   Cpmin    Chinge    XCp    
 ------- -------- --------- --------- -------- ------- ------- -------- --------- ---------
 -10.000  -1.0258   0.02208   0.01509  -0.0135  1.0000  0.0382  -5.0547   0.0000   0.0000   0.0000   0.2257
  -9.750  -1.0063   0.02139   0.01430  -0.0123  1.0000  0.0399  -4.8824   0.0000   0.0000   0.0000   0.2269
  -9.500  -0.9880   0.02050   0.01336  -0.0110  1.0000  0.0416  -4.7192   0.0000   0.0000   0.0000   0.2284
  -9.250  -0.9686   0.01981   0.01269  -0.0098  1.0000  0.0436  -4.5431   0.0000   0.0000   0.0000   0.2297
  -9.000  -0.9480   0.01923   0.01201  -0.0087  1.0000  0.0458  -4.3716   0.0000   0.0000   0.0000   0.2309
  -8.750  -0.9301   0.01837   0.01117  -0.0072  1.0000  0.0479  -4.2116   0.0000   0.0000   0.0000   0.2326
  -8.500  -0.9098   0.01781   0.01058  -0.0060  1.0000  0.0506  -4.0414   0.0000   0.0000   0.0000   0.2341
  -8.250  -0.8908   0.01714   0.00990  -0.0046  1.0000  0.0536  -3.8796   0.0000   0.0000   0.0000   0.2358
  -8.000  -0.8703   0.01665   0.00939  -0.0033  1.0000  0.0571  -3.7136   0.0000   0.0000   0.0000   0.2374
  -7.750  -0.8515   0.01603   0.00879  -0.0018  1.0000  0.0608  -3.5684   0.0000   0.0000   0.0000   0.2393
  -7.500  -0.8315   0.01553   0.00825  -0.0004  1.0000  0.0653  -3.4223   0.0000   0.0000   0.0000   0.2412
  -7.250  -0.8113   0.01505   0.00779   0.0009  1.0000  0.0706  -3.2746   0.0000   0.0000   0.0000   0.2431
  -7.000  -0.7916   0.01455   0.00731   0.0024  1.0000  0.0768  -3.1301   0.0000   0.0000   0.0000   0.2452
  -6.750  -0.7716   0.01408   0.00687   0.0037  1.0000  0.0843  -2.9867   0.0000   0.0000   0.0000   0.2473
  -6.500  -0.7515   0.01363   0.00645   0.0051  1.0000  0.0933  -2.8449   0.0000   0.0000   0.0000   0.2495
  -6.250  -0.7316   0.01316   0.00607   0.0065  1.0000  0.1044  -2.7070   0.0000   0.0000   0.0000   0.2518
  -6.000  -0.7112   0.01275   0.00572   0.0078  1.0000  0.1184  -2.5785   0.0000   0.0000   0.0000   0.2541
  -5.750  -0.6908   0.01234   0.00539   0.0091  1.0000  0.1355  -2.4512   0.0000   0.0000   0.0000   0.2565
  -5.500  -0.6702   0.01194   0.00510   0.0103  1.0000  0.1562  -2.3249   0.0000   0.0000   0.0000   0.2590
  -5.250  -0.6493   0.01156   0.00485   0.0115  1.0000  0.1805  -2.1993   0.0000   0.0000   0.0000   0.2614
  -5.000  -0.6281   0.01122   0.00463   0.0125  1.0000  0.2075  -2.0762   0.0000   0.0000   0.0000   0.2639
  -4.750  -0.6065   0.01091   0.00444   0.0135  1.0000  0.2369  -1.9622   0.0000   0.0000   0.0000   0.2664
  -4.500  -0.5847   0.01061   0.00429   0.0144  1.0000  0.2675  -1.8494   0.0000   0.0000   0.0000   0.2690
  -4.250  -0.5621   0.01036   0.00417   0.0152  1.0000  0.2992  -1.7369   0.0000   0.0000   0.0000   0.2716
  -4.000  -0.5270   0.01007   0.00404   0.0134  0.9975  0.3375  -1.6047   0.0000   0.0000   0.0000   0.2700
  -3.750  -0.4877   0.00978   0.00390   0.0107  0.9937  0.3776  -1.4715   0.0000   0.0000   0.0000   0.2667
  -3.500  -0.4488   0.00950   0.00378   0.0082  0.9894  0.4167  -1.3460   0.0000   0.0000   0.0000   0.2632
  -3.250  -0.4100   0.00924   0.00366   0.0057  0.9850  0.4550  -1.2290   0.0000   0.0000   0.0000   0.2590
  -3.000  -0.3705   0.00898   0.00355   0.0032  0.9808  0.4923  -1.1193   0.0000   0.0000   0.0000   0.2537
  -2.750  -0.3328   0.00873   0.00344   0.0011  0.9751  0.5283  -1.0194   0.0000   0.0000   0.0000   0.2485
  -2.500  -0.2938   0.00848   0.00333  -0.0012  0.9704  0.5634  -0.9256   0.0000   0.0000   0.0000   0.2411
  -2.250  -0.2556   0.00824   0.00322  -0.0032  0.9651  0.5976  -0.8407   0.0000   0.0000   0.0000   0.2324
  -2.000  -0.2212   0.00802   0.00311  -0.0044  0.9573  0.6295  -0.7677   0.0000   0.0000   0.0000   0.2253
  -1.750  -0.1888   0.00780   0.00301  -0.0050  0.9483  0.6597  -0.7032   0.0000   0.0000   0.0000   0.2185
  -1.500  -0.1585   0.00760   0.00292  -0.0051  0.9378  0.6887  -0.6462   0.0000   0.0000   0.0000   0.2127
  -1.250  -0.1298   0.00743   0.00284  -0.0048  0.9258  0.7167  -0.5963   0.0000   0.0000   0.0000   0.2079
  -1.000  -0.1030   0.00728   0.00278  -0.0041  0.9114  0.7432  -0.5521   0.0000   0.0000   0.0000   0.2054
  -0.750  -0.0770   0.00716   0.00273  -0.0031  0.8951  0.7686  -0.5128   0.0000   0.0000   0.0000   0.2043
  -0.500  -0.0510   0.00707   0.00269  -0.0022  0.8784  0.7929  -0.4766   0.0000   0.0000   0.0000   0.2028
  -0.250  -0.0255   0.00702   0.00267  -0.0011  0.8586  0.8163  -0.4438   0.0000   0.0000   0.0000   0.2026
   0.000  -0.0000   0.00700   0.00266   0.0000  0.8385  0.8385  -0.4134   0.0000   0.0000   0.0000   0.6024
   0.250   0.0255   0.00702   0.00267   0.0011  0.8163  0.8586  -0.4438   0.0000   0.0000   0.0000   0.2026
   0.500   0.0510   0.00707   0.00269   0.0022  0.7929  0.8784  -0.4766   0.0000   0.0000   0.0000   0.2028
   0.750   0.0770   0.00716   0.00273   0.0031  0.7686  0.8951  -0.5128   0.0000   0.0000   0.0000   0.2043
   1.000   0.1030   0.00728   0.00278   0.0041  0.7432  0.9114  -0.5521   0.0000   0.0000   0.0000   0.2054
   1.250   0.1298   0.00743   0.00284   0.0048  0.7167  0.9258  -0.5963   0.0000   0.0000   0.0000   0.2079
   1.500   0.1585   0.00760   0.00292   0.0051  0.6887  0.9378  -0.6462   0.0000   0.0000   0.0000   0.2127
   1.750   0.1888   0.00780   0.00301   0.0050  0.6597  0.9483  -0.7032   0.0000   0.0000   0.0000   0.2185
   2.000   0.2212   0.00802   0.00311   0.0044  0.6294  0.9573  -0.7677   0.0000   0.0000   0.0000   0.2253
   2.250   0.2556   0.00824   0.00322   0.0032  0.5976  0.9651  -0.8407   0.0000   0.0000   0.0000   0.2324
   2.500   0.2938   0.00848   0.00333   0.0012  0.5634  0.9704  -0.9256   0.0000   0.0000   0.0000   0.2411
   2.750   0.3328   0.00873   0.00344  -0.0011  0.5283  0.9752  -1.0194   0.0000   0.0000   0.0000   0.2485
   3.000   0.3705   0.00898   0.00355  -0.0032  0.4923  0.9808  -1.1193   0.0000   0.0000   0.0000   0.2537
   3.250   0.4100   0.00924   0.00366  -0.0057  0.4550  0.9850  -1.2290   0.0000   0.0000   0.0000   0.2590
   3.500   0.4488   0.00950   0.00378  -0.0082  0.4167  0.9894  -1.3460   0.0000   0.0000   0.0000   0.2632
   3.750   0.4877   0.00977   0.00390  -0.0107  0.3776  0.9937  -1.4715   0.0000   0.0000   0.0000   0.2667
   4.000   0.5270   0.01007   0.00403  -0.0134  0.3375  0.9976  -1.6048   0.0000   0.0000   0.0000   0.2700
   4.250   0.5620   0.01036   0.00417  -0.0152  0.2993  1.0000  -1.7367   0.0000   0.0000   0.0000   0.2716
   4.500   0.5846   0.01061   0.00429  -0.0144  0.2676  1.0000  -1.8493   0.0000   0.0000   0.0000   0.2690
   4.750   0.6064   0.01090   0.00444  -0.0135  0.2369  1.0000  -1.9621   0.0000   0.0000   0.0000   0.2664
   5.000   0.6280   0.01122   0.00463  -0.0125  0.2075  1.0000  -2.0761   0.0000   0.0000   0.0000   0.2639
   5.250   0.6493   0.01156   0.00485  -0.0114  0.1806  1.0000  -2.1992   0.0000   0.0000   0.0000   0.2614
   5.500   0.6702   0.01194   0.00510  -0.0103  0.1562  1.0000  -2.3247   0.0000   0.0000   0.0000   0.2589
   5.750   0.6907   0.01234   0.00539  -0.0091  0.1355  1.0000  -2.4510   0.0000   0.0000   0.0000   0.2565
   6.000   0.7112   0.01275   0.00572  -0.0078  0.1184  1.0000  -2.5784   0.0000   0.0000   0.0000   0.2541
   6.250   0.7316   0.01316   0.00606  -0.0065  0.1044  1.0000  -2.7068   0.0000   0.0000   0.0000   0.2518
   6.500   0.7515   0.01363   0.00645  -0.0051  0.0933  1.0000  -2.8447   0.0000   0.0000   0.0000   0.2495
   6.750   0.7716   0.01408   0.00687  -0.0037  0.0843  1.0000  -2.9866   0.0000   0.0000   0.0000   0.2473
   7.000   0.7916   0.01455   0.00731  -0.0023  0.0768  1.0000  -3.1299   0.0000   0.0000   0.0000   0.2452
   7.250   0.8113   0.01505   0.00778  -0.0009  0.0706  1.0000  -3.2744   0.0000   0.0000   0.0000   0.2431
   7.500   0.8314   0.01552   0.00825   0.0004  0.0653  1.0000  -3.4222   0.0000   0.0000   0.0000   0.2412
   7.750   0.8514   0.01603   0.00878   0.0018  0.0608  1.0000  -3.5684   0.0000   0.0000   0.0000   0.2393
   8.000   0.8703   0.01665   0.00939   0.0033  0.0571  1.0000  -3.7135   0.0000   0.0000   0.0000   0.2374
   8.250   0.8908   0.01713   0.00990   0.0046  0.0536  1.0000  -3.8796   0.0000   0.0000   0.0000   0.2358
   8.500   0.9098   0.01781   0.01058   0.0060  0.0506  1.0000  -4.0414   0.0000   0.0000   0.0000   0.2341
   8.750   0.9301   0.01837   0.01117   0.0072  0.0479  1.0000  -4.2117   0.0000   0.0000   0.0000   0.2326
   9.000   0.9481   0.01923   0.01200   0.0087  0.0458  1.0000  -4.3718   0.0000   0.0000   0.0000   0.2309
   9.250   0.9687   0.01981   0.01269   0.0098  0.0436  1.0000  -4.5434   0.0000   0.0000   0.0000   0.2297
   9.500   0.9881   0.02050   0.01336   0.0110  0.0416  1.0000  -4.7195   0.0000   0.0000   0.0000   0.2284
   9.750   1.0064   0.02139   0.01430   0.0123  0.0399  1.0000  -4.8827   0.0000   0.0000   0.0000   0.2270
  10.000   1.0260   0.02208   0.01508   0.0135  0.0382  1.0000  -5.0552   0.0000   0.0000   0.0000   0.2258
  10.250   1.0446   0.02286   0.01588   0.0147  0.0368  1.0000  -5.2304   0.0000   0.0000   0.0000   0.2245
  10.500   1.0606   0.02414   0.01714   0.0161  0.0356  1.0000  -5.3864   0.0000   0.0000   0.0000   0.2231
  10.750   1.0787   0.02496   0.01812   0.0174  0.0345  1.0000  -5.5640   0.0000   0.0000   0.0000   0.2219
  11.000   1.0958   0.02587   0.01914   0.0187  0.0333  1.0000  -5.7455   0.0000   0.0000   0.0000   0.2206
  11.250   1.1123   0.02674   0.02007   0.0200  0.0322  1.0000  -5.9354   0.0000   0.0000   0.0000   0.2193
  11.500   1.1277   0.02787   0.02117   0.0213  0.0313  1.0000  -6.1232   0.0000   0.0000   0.0000   0.2181
  11.750   1.1406   0.02924   0.02269   0.0229  0.0304  1.0000  -6.2808   0.0000   0.0000   0.0000   0.2165
  12.000   1.1514   0.03034   0.02396   0.0248  0.0296  1.0000  -6.4327   0.0000   0.0000   0.0000   0.2146
  12.250   1.1603   0.03156   0.02532   0.0269  0.0289  1.0000  -6.5776   0.0000   0.0000   0.0000   0.2126
  12.500   1.1684   0.03284   0.02672   0.0289  0.0283  1.0000  -6.7224   0.0000   0.0000   0.0000   0.2107
  12.750   1.1764   0.03416   0.02813   0.0306  0.0277  1.0000  -6.8714   0.0000   0.0000   0.0000   0.2090
  13.000   1.1844   0.03561   0.02962   0.0320  0.0272  1.0000  -7.0225   0.0000   0.0000   0.0000   0.2076
  13.250   1.1915   0.03754   0.03159   0.0333  0.0267  1.0000  -7.1596   0.0000   0.0000   0.0000   0.2063
  13.500   1.1915   0.04004   0.03428   0.0348  0.0263  1.0000  -7.2352   0.0000   0.0000   0.0000   0.2046
  13.750   1.1884   0.04240   0.03688   0.0359  0.0260  1.0000  -7.2980   0.0000   0.0000   0.0000   0.2031
  14.000   1.1833   0.04522   0.03993   0.0365  0.0257  1.0000  -7.3427   0.0000   0.0000   0.0000   0.2020
  14.250   1.1762   0.04850   0.04344   0.0364  0.0254  1.0000  -7.3699   0.0000   0.0000   0.0000   0.2014
  14.500   1.1671   0.05228   0.04743   0.0356  0.0252  1.0000  -7.3796   0.0000   0.0000   0.0000   0.2013
  14.750   1.1559   0.05660   0.05197   0.0341  0.0249  1.0000  -7.3704   0.0000   0.0000   0.0000   0.2018
  15.000   1.1425   0.06157   0.05715   0.0317  0.0247  1.0000  -7.3377   0.0000   0.0000   0.0000   0.2029
  15.250   1.1259   0.06734   0.06312   0.0286  0.0246  1.0000  -7.2731   0.0000   0.0000   0.0000   0.2047
  15.500   1.1048   0.07422   0.07021   0.0245  0.0245  1.0000  -7.1609   0.0000   0.0000   0.0000   0.2074
  15.750   1.0763   0.08282   0.07905   0.0190  0.0246  1.0000  -6.9692   0.0000   0.0000   0.0000   0.2113
  16.000   1.0364   0.09436   0.09085   0.0114  0.0249  1.0000  -6.6480   0.0000   0.0000   0.0000   0.2174
  16.250   0.9799   0.11047   0.10724   0.0010  0.0254  1.0000  -6.1218   0.0000   0.0000   0.0000   0.2271
  19.000   0.5322   0.18811   0.18545  -0.0230  0.0312  1.0000  -1.4558   0.0000   0.0000   0.0000   0.2788
  19.250   0.5458   0.19050   0.18785  -0.0225  0.0309  1.0000  -1.5888   0.0000   0.0000   0.0000   0.2762
  19.500   0.5305   0.19535   0.19269  -0.0270  0.0296  1.0000  -1.2677   0.0000   0.0000   0.0000   0.2865
  19.750   0.5341   0.19802   0.19537  -0.0283  0.0282  1.0000  -1.2557   0.0000   0.0000   0.0000   0.2884
  20.000   0.5391   0.20033   0.19769  -0.0293  0.0274  1.0000  -1.2798   0.0000   0.0000   0.0000   0.2895


