xflr5 v6.61

 Calculated polar for: NACA 0012

 1 1 Reynolds number fixed          Mach number fixed         

 xtrf =   1.000 (top)        1.000 (bottom)
 Mach =   0.000     Re =     0.480 e 6     Ncrit =   9.000

  alpha     CL        CD       CDp       Cm    Top Xtr Bot Xtr   Cpmin    Chinge    XCp    
 ------- -------- --------- --------- -------- ------- ------- -------- --------- ---------
 -10.000  -1.0424   0.01966   0.01305  -0.0110  1.0000  0.0337  -5.1999   0.0000   0.0000   0.0000   0.2283
  -9.750  -1.0220   0.01908   0.01239  -0.0099  1.0000  0.0351  -5.0172   0.0000   0.0000   0.0000   0.2295
  -9.500  -1.0039   0.01826   0.01154  -0.0085  1.0000  0.0365  -4.8489   0.0000   0.0000   0.0000   0.2310
  -9.250  -0.9838   0.01768   0.01095  -0.0074  1.0000  0.0383  -4.6648   0.0000   0.0000   0.0000   0.2323
  -9.000  -0.9623   0.01723   0.01044  -0.0064  1.0000  0.0403  -4.4802   0.0000   0.0000   0.0000   0.2335
  -8.750  -0.9436   0.01653   0.00973  -0.0049  1.0000  0.0424  -4.3111   0.0000   0.0000   0.0000   0.2352
  -8.500  -0.9228   0.01606   0.00924  -0.0038  1.0000  0.0448  -4.1327   0.0000   0.0000   0.0000   0.2366
  -8.250  -0.9031   0.01551   0.00867  -0.0024  1.0000  0.0473  -3.9646   0.0000   0.0000   0.0000   0.2383
  -8.000  -0.8828   0.01505   0.00821  -0.0011  1.0000  0.0503  -3.7922   0.0000   0.0000   0.0000   0.2400
  -7.750  -0.8627   0.01456   0.00771   0.0003  1.0000  0.0537  -3.6387   0.0000   0.0000   0.0000   0.2418
  -7.500  -0.8416   0.01420   0.00733   0.0015  1.0000  0.0578  -3.4820   0.0000   0.0000   0.0000   0.2436
  -7.250  -0.8217   0.01372   0.00688   0.0030  1.0000  0.0624  -3.3323   0.0000   0.0000   0.0000   0.2456
  -7.000  -0.8015   0.01330   0.00648   0.0043  1.0000  0.0676  -3.1833   0.0000   0.0000   0.0000   0.2476
  -6.750  -0.7810   0.01292   0.00611   0.0057  1.0000  0.0741  -3.0349   0.0000   0.0000   0.0000   0.2497
  -6.500  -0.7604   0.01254   0.00578   0.0070  1.0000  0.0821  -2.8881   0.0000   0.0000   0.0000   0.2519
  -6.250  -0.7397   0.01219   0.00546   0.0083  1.0000  0.0917  -2.7432   0.0000   0.0000   0.0000   0.2541
  -6.000  -0.7190   0.01183   0.00516   0.0095  1.0000  0.1032  -2.6115   0.0000   0.0000   0.0000   0.2564
  -5.750  -0.6980   0.01150   0.00489   0.0108  1.0000  0.1178  -2.4808   0.0000   0.0000   0.0000   0.2588
  -5.500  -0.6769   0.01116   0.00465   0.0119  1.0000  0.1351  -2.3516   0.0000   0.0000   0.0000   0.2612
  -5.250  -0.6556   0.01084   0.00443   0.0130  1.0000  0.1553  -2.2238   0.0000   0.0000   0.0000   0.2636
  -5.000  -0.6341   0.01053   0.00424   0.0140  1.0000  0.1787  -2.0972   0.0000   0.0000   0.0000   0.2660
  -4.750  -0.5977   0.01017   0.00402   0.0119  0.9977  0.2108  -1.9479   0.0000   0.0000   0.0000   0.2640
  -4.500  -0.5605   0.00981   0.00382   0.0096  0.9947  0.2456  -1.8000   0.0000   0.0000   0.0000   0.2615
  -4.250  -0.5231   0.00947   0.00365   0.0074  0.9917  0.2819  -1.6562   0.0000   0.0000   0.0000   0.2585
  -4.000  -0.4857   0.00915   0.00347   0.0051  0.9883  0.3188  -1.5253   0.0000   0.0000   0.0000   0.2551
  -3.750  -0.4488   0.00884   0.00332   0.0031  0.9845  0.3552  -1.3984   0.0000   0.0000   0.0000   0.2515
  -3.500  -0.4107   0.00855   0.00317   0.0008  0.9811  0.3917  -1.2805   0.0000   0.0000   0.0000   0.2466
  -3.250  -0.3741   0.00827   0.00303  -0.0012  0.9766  0.4273  -1.1701   0.0000   0.0000   0.0000   0.2417
  -3.000  -0.3356   0.00799   0.00289  -0.0034  0.9732  0.4625  -1.0657   0.0000   0.0000   0.0000   0.2345
  -2.750  -0.3016   0.00774   0.00276  -0.0047  0.9668  0.4956  -0.9754   0.0000   0.0000   0.0000   0.2293
  -2.500  -0.2687   0.00751   0.00264  -0.0056  0.9596  0.5277  -0.8930   0.0000   0.0000   0.0000   0.2240
  -2.250  -0.2380   0.00728   0.00253  -0.0060  0.9508  0.5583  -0.8196   0.0000   0.0000   0.0000   0.2197
  -2.000  -0.2093   0.00708   0.00243  -0.0059  0.9402  0.5879  -0.7543   0.0000   0.0000   0.0000   0.2166
  -1.750  -0.1818   0.00690   0.00233  -0.0055  0.9280  0.6167  -0.6959   0.0000   0.0000   0.0000   0.2147
  -1.500  -0.1551   0.00674   0.00225  -0.0049  0.9146  0.6450  -0.6429   0.0000   0.0000   0.0000   0.2135
  -1.250  -0.1292   0.00660   0.00218  -0.0041  0.8990  0.6726  -0.5957   0.0000   0.0000   0.0000   0.2132
  -1.000  -0.1034   0.00648   0.00213  -0.0033  0.8819  0.6995  -0.5525   0.0000   0.0000   0.0000   0.2133
  -0.750  -0.0776   0.00638   0.00208  -0.0025  0.8638  0.7257  -0.5133   0.0000   0.0000   0.0000   0.2135
  -0.500  -0.0518   0.00631   0.00205  -0.0016  0.8437  0.7513  -0.4772   0.0000   0.0000   0.0000   0.2137
  -0.250  -0.0259   0.00627   0.00203  -0.0008  0.8225  0.7761  -0.4441   0.0000   0.0000   0.0000   0.2134
   0.000   0.0000   0.00627   0.00201  -0.0000  0.8002  0.8002  -0.4136   0.0000   0.0000   0.0000   0.4788
   0.250   0.0259   0.00627   0.00203   0.0008  0.7761  0.8225  -0.4441   0.0000   0.0000   0.0000   0.2134
   0.500   0.0518   0.00631   0.00205   0.0016  0.7513  0.8437  -0.4772   0.0000   0.0000   0.0000   0.2137
   0.750   0.0776   0.00638   0.00208   0.0025  0.7257  0.8638  -0.5133   0.0000   0.0000   0.0000   0.2135
   1.000   0.1034   0.00648   0.00213   0.0033  0.6995  0.8819  -0.5525   0.0000   0.0000   0.0000   0.2133
   1.250   0.1292   0.00660   0.00218   0.0041  0.6726  0.8990  -0.5957   0.0000   0.0000   0.0000   0.2132
   1.500   0.1551   0.00674   0.00225   0.0049  0.6450  0.9146  -0.6429   0.0000   0.0000   0.0000   0.2135
   1.750   0.1818   0.00690   0.00233   0.0055  0.6167  0.9280  -0.6959   0.0000   0.0000   0.0000   0.2147
   2.000   0.2093   0.00708   0.00243   0.0059  0.5879  0.9402  -0.7543   0.0000   0.0000   0.0000   0.2166
   2.250   0.2380   0.00728   0.00253   0.0060  0.5583  0.9508  -0.8196   0.0000   0.0000   0.0000   0.2197
   2.500   0.2687   0.00751   0.00264   0.0056  0.5277  0.9596  -0.8930   0.0000   0.0000   0.0000   0.2240
   2.750   0.3016   0.00774   0.00276   0.0047  0.4956  0.9668  -0.9754   0.0000   0.0000   0.0000   0.2293
   3.000   0.3356   0.00799   0.00289   0.0034  0.4625  0.9732  -1.0657   0.0000   0.0000   0.0000   0.2345
   3.250   0.3740   0.00827   0.00303   0.0012  0.4273  0.9766  -1.1701   0.0000   0.0000   0.0000   0.2417
   3.500   0.4107   0.00855   0.00317  -0.0008  0.3917  0.9811  -1.2805   0.0000   0.0000   0.0000   0.2466
   3.750   0.4488   0.00884   0.00332  -0.0031  0.3553  0.9845  -1.3984   0.0000   0.0000   0.0000   0.2515
   4.000   0.4857   0.00915   0.00347  -0.0051  0.3188  0.9883  -1.5253   0.0000   0.0000   0.0000   0.2551
   4.250   0.5231   0.00947   0.00364  -0.0074  0.2819  0.9917  -1.6562   0.0000   0.0000   0.0000   0.2585
   4.500   0.5605   0.00981   0.00382  -0.0096  0.2456  0.9947  -1.8001   0.0000   0.0000   0.0000   0.2615
   4.750   0.5978   0.01017   0.00402  -0.0119  0.2107  0.9977  -1.9479   0.0000   0.0000   0.0000   0.2640
   5.000   0.6340   0.01053   0.00424  -0.0140  0.1787  1.0000  -2.0970   0.0000   0.0000   0.0000   0.2660
   5.250   0.6556   0.01084   0.00443  -0.0130  0.1554  1.0000  -2.2236   0.0000   0.0000   0.0000   0.2636
   5.500   0.6769   0.01116   0.00465  -0.0119  0.1352  1.0000  -2.3514   0.0000   0.0000   0.0000   0.2611
   5.750   0.6980   0.01149   0.00489  -0.0107  0.1178  1.0000  -2.4806   0.0000   0.0000   0.0000   0.2588
   6.000   0.7189   0.01183   0.00516  -0.0095  0.1032  1.0000  -2.6113   0.0000   0.0000   0.0000   0.2564
   6.250   0.7396   0.01219   0.00546  -0.0083  0.0917  1.0000  -2.7430   0.0000   0.0000   0.0000   0.2541
   6.500   0.7603   0.01254   0.00577  -0.0070  0.0821  1.0000  -2.8879   0.0000   0.0000   0.0000   0.2519
   6.750   0.7809   0.01292   0.00611  -0.0057  0.0742  1.0000  -3.0347   0.0000   0.0000   0.0000   0.2497
   7.000   0.8014   0.01330   0.00648  -0.0043  0.0676  1.0000  -3.1831   0.0000   0.0000   0.0000   0.2476
   7.250   0.8217   0.01372   0.00688  -0.0029  0.0624  1.0000  -3.3321   0.0000   0.0000   0.0000   0.2456
   7.500   0.8415   0.01420   0.00733  -0.0015  0.0578  1.0000  -3.4819   0.0000   0.0000   0.0000   0.2436
   7.750   0.8627   0.01456   0.00771  -0.0003  0.0537  1.0000  -3.6386   0.0000   0.0000   0.0000   0.2418
   8.000   0.8827   0.01505   0.00821   0.0011  0.0503  1.0000  -3.7920   0.0000   0.0000   0.0000   0.2400
   8.250   0.9031   0.01551   0.00866   0.0024  0.0473  1.0000  -3.9645   0.0000   0.0000   0.0000   0.2383
   8.500   0.9228   0.01606   0.00924   0.0038  0.0448  1.0000  -4.1327   0.0000   0.0000   0.0000   0.2366
   8.750   0.9436   0.01653   0.00973   0.0049  0.0424  1.0000  -4.3112   0.0000   0.0000   0.0000   0.2352
   9.000   0.9623   0.01722   0.01043   0.0064  0.0403  1.0000  -4.4803   0.0000   0.0000   0.0000   0.2335
   9.250   0.9838   0.01768   0.01095   0.0074  0.0383  1.0000  -4.6650   0.0000   0.0000   0.0000   0.2323
   9.500   1.0040   0.01826   0.01154   0.0085  0.0365  1.0000  -4.8491   0.0000   0.0000   0.0000   0.2310
   9.750   1.0220   0.01907   0.01238   0.0099  0.0351  1.0000  -5.0175   0.0000   0.0000   0.0000   0.2295
  10.000   1.0425   0.01966   0.01305   0.0110  0.0337  1.0000  -5.2003   0.0000   0.0000   0.0000   0.2283
  10.250   1.0621   0.02029   0.01372   0.0121  0.0324  1.0000  -5.3854   0.0000   0.0000   0.0000   0.2272
  10.500   1.0790   0.02118   0.01461   0.0135  0.0313  1.0000  -5.5593   0.0000   0.0000   0.0000   0.2257
  10.750   1.0960   0.02208   0.01559   0.0149  0.0303  1.0000  -5.7400   0.0000   0.0000   0.0000   0.2243
  11.000   1.1146   0.02276   0.01637   0.0161  0.0292  1.0000  -5.9408   0.0000   0.0000   0.0000   0.2231
  11.250   1.1323   0.02347   0.01714   0.0174  0.0282  1.0000  -6.1435   0.0000   0.0000   0.0000   0.2219
  11.500   1.1482   0.02428   0.01798   0.0188  0.0273  1.0000  -6.3424   0.0000   0.0000   0.0000   0.2205
  11.750   1.1588   0.02566   0.01937   0.0207  0.0265  1.0000  -6.5029   0.0000   0.0000   0.0000   0.2187
  12.000   1.1705   0.02664   0.02048   0.0227  0.0260  1.0000  -6.6701   0.0000   0.0000   0.0000   0.2168
  12.250   1.1813   0.02760   0.02157   0.0247  0.0254  1.0000  -6.8357   0.0000   0.0000   0.0000   0.2149
  12.500   1.1910   0.02870   0.02278   0.0266  0.0248  1.0000  -6.9961   0.0000   0.0000   0.0000   0.2130
  12.750   1.1999   0.02988   0.02406   0.0284  0.0243  1.0000  -7.1555   0.0000   0.0000   0.0000   0.2113
  13.000   1.2082   0.03114   0.02541   0.0299  0.0238  1.0000  -7.3143   0.0000   0.0000   0.0000   0.2098
  13.250   1.2156   0.03254   0.02687   0.0312  0.0233  1.0000  -7.4702   0.0000   0.0000   0.0000   0.2084
  13.500   1.2215   0.03417   0.02857   0.0324  0.0229  1.0000  -7.6155   0.0000   0.0000   0.0000   0.2071
  13.750   1.2235   0.03639   0.03087   0.0336  0.0225  1.0000  -7.7258   0.0000   0.0000   0.0000   0.2058
  14.000   1.2231   0.03890   0.03353   0.0344  0.0221  1.0000  -7.8113   0.0000   0.0000   0.0000   0.2046
  14.250   1.2247   0.04119   0.03599   0.0346  0.0219  1.0000  -7.9161   0.0000   0.0000   0.0000   0.2040
  14.500   1.2246   0.04383   0.03880   0.0344  0.0215  1.0000  -8.0066   0.0000   0.0000   0.0000   0.2036
  14.750   1.2229   0.04684   0.04197   0.0338  0.0212  1.0000  -8.0840   0.0000   0.0000   0.0000   0.2036
  15.000   1.2199   0.05020   0.04549   0.0328  0.0209  1.0000  -8.1487   0.0000   0.0000   0.0000   0.2038
  15.250   1.2152   0.05394   0.04937   0.0313  0.0206  1.0000  -8.1985   0.0000   0.0000   0.0000   0.2043
  15.500   1.2084   0.05814   0.05373   0.0294  0.0204  1.0000  -8.2275   0.0000   0.0000   0.0000   0.2052
  15.750   1.1998   0.06279   0.05853   0.0272  0.0202  1.0000  -8.2367   0.0000   0.0000   0.0000   0.2064
  16.000   1.1890   0.06790   0.06380   0.0245  0.0201  1.0000  -8.2231   0.0000   0.0000   0.0000   0.2078
  16.250   1.1761   0.07355   0.06959   0.0214  0.0200  1.0000  -8.1889   0.0000   0.0000   0.0000   0.2097
  16.500   1.1607   0.07980   0.07600   0.0179  0.0199  1.0000  -8.1281   0.0000   0.0000   0.0000   0.2119
  16.750   1.1423   0.08685   0.08321   0.0138  0.0198  1.0000  -8.0282   0.0000   0.0000   0.0000   0.2147
  17.000   1.1197   0.09500   0.09153   0.0090  0.0198  1.0000  -7.8717   0.0000   0.0000   0.0000   0.2182
  17.250   1.0900   0.10486   0.10159   0.0031  0.0198  1.0000  -7.6232   0.0000   0.0000   0.0000   0.2229
  17.500   1.0407   0.11947   0.11647  -0.0057  0.0200  1.0000  -7.1202   0.0000   0.0000   0.0000   0.2309


