xflr5 v6.61

 Calculated polar for: NACA 0012

 1 1 Reynolds number fixed          Mach number fixed         

 xtrf =   1.000 (top)        1.000 (bottom)
 Mach =   0.000     Re =     0.920 e 6     Ncrit =   9.000

  alpha     CL        CD       CDp       Cm    Top Xtr Bot Xtr   Cpmin    Chinge    XCp    
 ------- -------- --------- --------- -------- ------- ------- -------- --------- ---------
 -10.000  -1.0766   0.01558   0.00963  -0.0058  1.0000  0.0261  -5.4683   0.0000   0.0000   0.0000   0.2335
  -9.750  -1.0560   0.01503   0.00904  -0.0047  1.0000  0.0273  -5.2735   0.0000   0.0000   0.0000   0.2348
  -9.500  -1.0345   0.01457   0.00857  -0.0036  1.0000  0.0286  -5.0732   0.0000   0.0000   0.0000   0.2360
  -9.250  -1.0124   0.01422   0.00819  -0.0027  1.0000  0.0299  -4.8727   0.0000   0.0000   0.0000   0.2372
  -9.000  -0.9905   0.01387   0.00781  -0.0016  1.0000  0.0311  -4.6775   0.0000   0.0000   0.0000   0.2385
  -8.750  -0.9702   0.01339   0.00734  -0.0003  1.0000  0.0330  -4.4918   0.0000   0.0000   0.0000   0.2401
  -8.500  -0.9483   0.01308   0.00701   0.0008  1.0000  0.0348  -4.3006   0.0000   0.0000   0.0000   0.2416
  -8.250  -0.9273   0.01272   0.00663   0.0021  1.0000  0.0369  -4.1170   0.0000   0.0000   0.0000   0.2432
  -8.000  -0.9061   0.01240   0.00632   0.0033  1.0000  0.0394  -3.9336   0.0000   0.0000   0.0000   0.2449
  -7.750  -0.8850   0.01209   0.00600   0.0046  1.0000  0.0419  -3.7637   0.0000   0.0000   0.0000   0.2467
  -7.500  -0.8640   0.01178   0.00570   0.0059  1.0000  0.0450  -3.6012   0.0000   0.0000   0.0000   0.2486
  -7.250  -0.8431   0.01148   0.00541   0.0072  1.0000  0.0483  -3.4419   0.0000   0.0000   0.0000   0.2506
  -6.750  -0.8009   0.01095   0.00490   0.0097  1.0000  0.0571  -3.1280   0.0000   0.0000   0.0000   0.2547
  -6.500  -0.7730   0.01066   0.00464   0.0095  0.9993  0.0635  -2.9538   0.0000   0.0000   0.0000   0.2551
  -6.250  -0.7381   0.01035   0.00438   0.0079  0.9978  0.0717  -2.7619   0.0000   0.0000   0.0000   0.2536
  -6.000  -0.7036   0.01002   0.00412   0.0063  0.9960  0.0826  -2.5884   0.0000   0.0000   0.0000   0.2521
  -5.750  -0.6688   0.00970   0.00387   0.0046  0.9941  0.0958  -2.4187   0.0000   0.0000   0.0000   0.2502
  -5.500  -0.6338   0.00938   0.00363   0.0029  0.9924  0.1114  -2.2523   0.0000   0.0000   0.0000   0.2481
  -5.250  -0.5997   0.00904   0.00340   0.0014  0.9898  0.1306  -2.0921   0.0000   0.0000   0.0000   0.2460
  -5.000  -0.5643   0.00872   0.00318  -0.0004  0.9879  0.1526  -1.9431   0.0000   0.0000   0.0000   0.2432
  -4.750  -0.5299   0.00839   0.00297  -0.0019  0.9853  0.1775  -1.8010   0.0000   0.0000   0.0000   0.2403
  -4.500  -0.4953   0.00807   0.00278  -0.0035  0.9824  0.2045  -1.6617   0.0000   0.0000   0.0000   0.2370
  -4.250  -0.4619   0.00775   0.00259  -0.0048  0.9789  0.2334  -1.5378   0.0000   0.0000   0.0000   0.2338
  -4.000  -0.4305   0.00747   0.00243  -0.0056  0.9736  0.2622  -1.4208   0.0000   0.0000   0.0000   0.2313
  -3.750  -0.4012   0.00720   0.00228  -0.0058  0.9665  0.2912  -1.3153   0.0000   0.0000   0.0000   0.2298
  -3.500  -0.3732   0.00696   0.00214  -0.0058  0.9582  0.3199  -1.2172   0.0000   0.0000   0.0000   0.2289
  -3.250  -0.3460   0.00675   0.00202  -0.0055  0.9485  0.3481  -1.1267   0.0000   0.0000   0.0000   0.2286
  -3.000  -0.3195   0.00654   0.00190  -0.0051  0.9375  0.3762  -1.0416   0.0000   0.0000   0.0000   0.2288
  -2.750  -0.2933   0.00636   0.00180  -0.0046  0.9253  0.4042  -0.9640   0.0000   0.0000   0.0000   0.2292
  -2.500  -0.2671   0.00619   0.00170  -0.0041  0.9113  0.4321  -0.8908   0.0000   0.0000   0.0000   0.2297
  -2.250  -0.2408   0.00604   0.00161  -0.0036  0.8958  0.4599  -0.8227   0.0000   0.0000   0.0000   0.2301
  -2.000  -0.2143   0.00592   0.00153  -0.0031  0.8793  0.4876  -0.7597   0.0000   0.0000   0.0000   0.2306
  -1.750  -0.1877   0.00580   0.00146  -0.0027  0.8611  0.5153  -0.7016   0.0000   0.0000   0.0000   0.2309
  -1.500  -0.1610   0.00572   0.00140  -0.0022  0.8416  0.5428  -0.6483   0.0000   0.0000   0.0000   0.2313
  -1.250  -0.1342   0.00564   0.00135  -0.0019  0.8208  0.5701  -0.5998   0.0000   0.0000   0.0000   0.2314
  -1.000  -0.1075   0.00558   0.00130  -0.0015  0.7990  0.5971  -0.5555   0.0000   0.0000   0.0000   0.2318
  -0.750  -0.0807   0.00553   0.00127  -0.0011  0.7757  0.6237  -0.5153   0.0000   0.0000   0.0000   0.2319
  -0.500  -0.0538   0.00549   0.00124  -0.0007  0.7519  0.6500  -0.4784   0.0000   0.0000   0.0000   0.2319
  -0.250  -0.0269   0.00548   0.00123  -0.0004  0.7273  0.6761  -0.4447   0.0000   0.0000   0.0000   0.2320
   0.000   0.0000   0.00548   0.00123  -0.0000  0.7021  0.7021  -0.4136   0.0000   0.0000   0.0000   0.4569
   0.250   0.0269   0.00548   0.00123   0.0004  0.6761  0.7273  -0.4447   0.0000   0.0000   0.0000   0.2320
   0.500   0.0538   0.00549   0.00124   0.0007  0.6501  0.7519  -0.4784   0.0000   0.0000   0.0000   0.2319
   0.750   0.0807   0.00553   0.00127   0.0011  0.6237  0.7757  -0.5153   0.0000   0.0000   0.0000   0.2319
   1.000   0.1075   0.00558   0.00130   0.0015  0.5971  0.7990  -0.5555   0.0000   0.0000   0.0000   0.2318
   1.250   0.1342   0.00564   0.00135   0.0019  0.5701  0.8208  -0.5998   0.0000   0.0000   0.0000   0.2314
   1.750   0.1877   0.00580   0.00146   0.0027  0.5153  0.8611  -0.7016   0.0000   0.0000   0.0000   0.2309
   2.000   0.2143   0.00592   0.00153   0.0031  0.4877  0.8793  -0.7597   0.0000   0.0000   0.0000   0.2306
   2.250   0.2408   0.00604   0.00161   0.0036  0.4599  0.8958  -0.8227   0.0000   0.0000   0.0000   0.2301
   2.500   0.2671   0.00619   0.00170   0.0041  0.4322  0.9113  -0.8908   0.0000   0.0000   0.0000   0.2297
   2.750   0.2933   0.00636   0.00180   0.0046  0.4042  0.9252  -0.9640   0.0000   0.0000   0.0000   0.2292
   3.000   0.3195   0.00654   0.00190   0.0051  0.3762  0.9375  -1.0416   0.0000   0.0000   0.0000   0.2288
   3.250   0.3460   0.00675   0.00202   0.0055  0.3481  0.9485  -1.1267   0.0000   0.0000   0.0000   0.2286
   3.500   0.3732   0.00696   0.00214   0.0058  0.3199  0.9582  -1.2172   0.0000   0.0000   0.0000   0.2289
   3.750   0.4013   0.00720   0.00228   0.0058  0.2912  0.9665  -1.3153   0.0000   0.0000   0.0000   0.2299
   4.000   0.4305   0.00747   0.00243   0.0056  0.2622  0.9736  -1.4208   0.0000   0.0000   0.0000   0.2313
   4.250   0.4619   0.00775   0.00259   0.0048  0.2334  0.9789  -1.5378   0.0000   0.0000   0.0000   0.2338
   4.500   0.4953   0.00807   0.00278   0.0035  0.2046  0.9824  -1.6617   0.0000   0.0000   0.0000   0.2370
   4.750   0.5299   0.00839   0.00297   0.0019  0.1775  0.9853  -1.8010   0.0000   0.0000   0.0000   0.2403
   5.000   0.5643   0.00872   0.00318   0.0004  0.1526  0.9879  -1.9431   0.0000   0.0000   0.0000   0.2432
   5.250   0.5997   0.00904   0.00340  -0.0014  0.1306  0.9898  -2.0921   0.0000   0.0000   0.0000   0.2460
   5.500   0.6338   0.00938   0.00363  -0.0029  0.1114  0.9924  -2.2523   0.0000   0.0000   0.0000   0.2481
   5.750   0.6688   0.00969   0.00387  -0.0046  0.0958  0.9941  -2.4188   0.0000   0.0000   0.0000   0.2502
   6.000   0.7037   0.01002   0.00412  -0.0063  0.0826  0.9960  -2.5884   0.0000   0.0000   0.0000   0.2521
   6.250   0.7381   0.01035   0.00438  -0.0079  0.0717  0.9978  -2.7620   0.0000   0.0000   0.0000   0.2536
   6.500   0.7730   0.01066   0.00464  -0.0096  0.0635  0.9993  -2.9539   0.0000   0.0000   0.0000   0.2551
   6.750   0.8008   0.01095   0.00490  -0.0097  0.0571  1.0000  -3.1277   0.0000   0.0000   0.0000   0.2547
   7.250   0.8430   0.01148   0.00541  -0.0072  0.0483  1.0000  -3.4416   0.0000   0.0000   0.0000   0.2506
   7.500   0.8639   0.01178   0.00570  -0.0059  0.0450  1.0000  -3.6010   0.0000   0.0000   0.0000   0.2486
   7.750   0.8849   0.01209   0.00599  -0.0046  0.0419  1.0000  -3.7635   0.0000   0.0000   0.0000   0.2467
   8.000   0.9060   0.01240   0.00632  -0.0033  0.0394  1.0000  -3.9334   0.0000   0.0000   0.0000   0.2449
   8.250   0.9272   0.01272   0.00663  -0.0021  0.0369  1.0000  -4.1168   0.0000   0.0000   0.0000   0.2432
   8.500   0.9483   0.01308   0.00701  -0.0008  0.0348  1.0000  -4.3005   0.0000   0.0000   0.0000   0.2416
   8.750   0.9701   0.01339   0.00734   0.0003  0.0330  1.0000  -4.4917   0.0000   0.0000   0.0000   0.2401
   9.000   0.9905   0.01387   0.00781   0.0016  0.0311  1.0000  -4.6774   0.0000   0.0000   0.0000   0.2385
   9.250   1.0124   0.01421   0.00819   0.0027  0.0299  1.0000  -4.8726   0.0000   0.0000   0.0000   0.2372
   9.500   1.0345   0.01457   0.00857   0.0036  0.0286  1.0000  -5.0733   0.0000   0.0000   0.0000   0.2360
   9.750   1.0560   0.01503   0.00903   0.0047  0.0273  1.0000  -5.2736   0.0000   0.0000   0.0000   0.2348
  10.000   1.0767   0.01558   0.00962   0.0058  0.0261  1.0000  -5.4685   0.0000   0.0000   0.0000   0.2335
  10.250   1.0995   0.01595   0.01003   0.0066  0.0251  1.0000  -5.6807   0.0000   0.0000   0.0000   0.2326
  10.500   1.1217   0.01637   0.01048   0.0074  0.0241  1.0000  -5.8940   0.0000   0.0000   0.0000   0.2317
  10.750   1.1428   0.01690   0.01104   0.0083  0.0232  1.0000  -6.1169   0.0000   0.0000   0.0000   0.2306
  11.000   1.1604   0.01774   0.01191   0.0097  0.0222  1.0000  -6.3202   0.0000   0.0000   0.0000   0.2292
  11.250   1.1823   0.01818   0.01241   0.0105  0.0217  1.0000  -6.5559   0.0000   0.0000   0.0000   0.2283
  11.500   1.2031   0.01869   0.01299   0.0115  0.0211  1.0000  -6.7886   0.0000   0.0000   0.0000   0.2273
  11.750   1.2232   0.01925   0.01359   0.0125  0.0204  1.0000  -7.0216   0.0000   0.0000   0.0000   0.2263
  12.000   1.2426   0.01984   0.01423   0.0135  0.0198  1.0000  -7.2550   0.0000   0.0000   0.0000   0.2252
  12.250   1.2598   0.02057   0.01500   0.0148  0.0193  1.0000  -7.4772   0.0000   0.0000   0.0000   0.2240
  12.500   1.2701   0.02178   0.01627   0.0169  0.0186  1.0000  -7.6510   0.0000   0.0000   0.0000   0.2220
  12.750   1.2861   0.02248   0.01705   0.0184  0.0182  1.0000  -7.8698   0.0000   0.0000   0.0000   0.2207
  13.000   1.3008   0.02310   0.01775   0.0201  0.0179  1.0000  -8.0868   0.0000   0.0000   0.0000   0.2191
  13.250   1.3135   0.02383   0.01855   0.0219  0.0175  1.0000  -8.2944   0.0000   0.0000   0.0000   0.2175
  13.500   1.3252   0.02467   0.01945   0.0237  0.0171  1.0000  -8.4964   0.0000   0.0000   0.0000   0.2159
  13.750   1.3356   0.02563   0.02048   0.0254  0.0167  1.0000  -8.6919   0.0000   0.0000   0.0000   0.2143
  14.000   1.3451   0.02670   0.02163   0.0269  0.0164  1.0000  -8.8830   0.0000   0.0000   0.0000   0.2128
  14.250   1.3532   0.02795   0.02295   0.0283  0.0161  1.0000  -9.0663   0.0000   0.0000   0.0000   0.2115
  14.500   1.3588   0.02948   0.02455   0.0296  0.0158  1.0000  -9.2309   0.0000   0.0000   0.0000   0.2102
  14.750   1.3603   0.03149   0.02665   0.0306  0.0155  1.0000  -9.3636   0.0000   0.0000   0.0000   0.2089
  15.000   1.3560   0.03425   0.02951   0.0312  0.0153  1.0000  -9.4467   0.0000   0.0000   0.0000   0.2079
  15.250   1.3463   0.03789   0.03330   0.0311  0.0150  1.0000  -9.4783   0.0000   0.0000   0.0000   0.2072
  15.500   1.3494   0.04042   0.03594   0.0306  0.0149  1.0000  -9.6136   0.0000   0.0000   0.0000   0.2071
  15.750   1.3504   0.04337   0.03901   0.0297  0.0148  1.0000  -9.7294   0.0000   0.0000   0.0000   0.2072
  16.000   1.3488   0.04679   0.04255   0.0284  0.0147  1.0000  -9.8222   0.0000   0.0000   0.0000   0.2076
  16.250   1.3447   0.05071   0.04660   0.0267  0.0146  1.0000  -9.9006   0.0000   0.0000   0.0000   0.2082
  16.500   1.3378   0.05516   0.05118   0.0246  0.0145  1.0000  -9.9518   0.0000   0.0000   0.0000   0.2091
  16.750   1.3280   0.06014   0.05628   0.0221  0.0144  1.0000  -9.9724   0.0000   0.0000   0.0000   0.2102
  17.000   1.3155   0.06564   0.06192   0.0194  0.0143  1.0000  -9.9636   0.0000   0.0000   0.0000   0.2115
  17.250   1.3002   0.07163   0.06803   0.0164  0.0142  1.0000  -9.9236   0.0000   0.0000   0.0000   0.2130
  17.500   1.2831   0.07807   0.07461   0.0131  0.0141  1.0000  -9.8585   0.0000   0.0000   0.0000   0.2148
  17.750   1.2642   0.08493   0.08160   0.0096  0.0141  1.0000  -9.7677   0.0000   0.0000   0.0000   0.2169
  18.000   1.2443   0.09209   0.08888   0.0059  0.0141  1.0000  -9.6583   0.0000   0.0000   0.0000   0.2191
  18.250   1.2238   0.09954   0.09645   0.0021  0.0140  1.0000  -9.5315   0.0000   0.0000   0.0000   0.2216
  18.500   1.2029   0.10716   0.10419  -0.0019  0.0140  1.0000  -9.3891   0.0000   0.0000   0.0000   0.2244
  18.750   1.1822   0.11495   0.11209  -0.0060  0.0139  1.0000  -9.2356   0.0000   0.0000   0.0000   0.2273
  19.000   1.1616   0.12287   0.12012  -0.0102  0.0139  1.0000  -9.0688   0.0000   0.0000   0.0000   0.2306
  19.250   1.1410   0.13096   0.12833  -0.0146  0.0138  1.0000  -8.8853   0.0000   0.0000   0.0000   0.2341
  19.500   1.1201   0.13941   0.13690  -0.0193  0.0138  1.0000  -8.6761   0.0000   0.0000   0.0000   0.2381
  19.750   1.0977   0.14842   0.14603  -0.0245  0.0137  1.0000  -8.4242   0.0000   0.0000   0.0000   0.2428
  20.000   1.0712   0.15872   0.15646  -0.0305  0.0137  1.0000  -8.0816   0.0000   0.0000   0.0000   0.2486


