xflr5 v6.61

 Calculated polar for: NACA 0012

 1 1 Reynolds number fixed          Mach number fixed         

 xtrf =   1.000 (top)        1.000 (bottom)
 Mach =   0.000     Re =     0.340 e 6     Ncrit =   9.000

  alpha     CL        CD       CDp       Cm    Top Xtr Bot Xtr   Cpmin    Chinge    XCp    
 ------- -------- --------- --------- -------- ------- ------- -------- --------- ---------
 -10.000  -1.0225   0.02270   0.01560  -0.0140  1.0000  0.0393  -5.0231   0.0000   0.0000   0.0000   0.2252
  -9.750  -1.0029   0.02198   0.01474  -0.0128  1.0000  0.0409  -4.8567   0.0000   0.0000   0.0000   0.2265
  -9.500  -0.9854   0.02099   0.01381  -0.0115  1.0000  0.0427  -4.6897   0.0000   0.0000   0.0000   0.2279
  -9.250  -0.9654   0.02034   0.01311  -0.0103  1.0000  0.0448  -4.5167   0.0000   0.0000   0.0000   0.2291
  -9.000  -0.9464   0.01953   0.01223  -0.0090  1.0000  0.0469  -4.3563   0.0000   0.0000   0.0000   0.2306
  -8.750  -0.9272   0.01881   0.01154  -0.0077  1.0000  0.0492  -4.1882   0.0000   0.0000   0.0000   0.2321
  -8.500  -0.9062   0.01829   0.01092  -0.0066  1.0000  0.0520  -4.0197   0.0000   0.0000   0.0000   0.2334
  -8.250  -0.8881   0.01753   0.01021  -0.0051  1.0000  0.0550  -3.8591   0.0000   0.0000   0.0000   0.2352
  -8.000  -0.8680   0.01698   0.00961  -0.0037  1.0000  0.0586  -3.6994   0.0000   0.0000   0.0000   0.2369
  -7.750  -0.8488   0.01638   0.00904  -0.0023  1.0000  0.0625  -3.5524   0.0000   0.0000   0.0000   0.2388
  -7.500  -0.8297   0.01579   0.00846  -0.0008  1.0000  0.0668  -3.4095   0.0000   0.0000   0.0000   0.2408
  -7.250  -0.8097   0.01529   0.00796   0.0006  1.0000  0.0723  -3.2642   0.0000   0.0000   0.0000   0.2427
  -7.000  -0.7896   0.01481   0.00749   0.0020  1.0000  0.0788  -3.1195   0.0000   0.0000   0.0000   0.2447
  -6.750  -0.7699   0.01431   0.00702   0.0034  1.0000  0.0864  -2.9775   0.0000   0.0000   0.0000   0.2469
  -6.500  -0.7501   0.01383   0.00659   0.0048  1.0000  0.0956  -2.8366   0.0000   0.0000   0.0000   0.2491
  -6.250  -0.7299   0.01339   0.00621   0.0061  1.0000  0.1074  -2.6991   0.0000   0.0000   0.0000   0.2513
  -6.000  -0.7099   0.01293   0.00584   0.0075  1.0000  0.1215  -2.5720   0.0000   0.0000   0.0000   0.2537
  -5.750  -0.6895   0.01251   0.00550   0.0088  1.0000  0.1392  -2.4454   0.0000   0.0000   0.0000   0.2561
  -5.500  -0.6689   0.01211   0.00521   0.0100  1.0000  0.1609  -2.3194   0.0000   0.0000   0.0000   0.2585
  -5.250  -0.6481   0.01173   0.00495   0.0112  1.0000  0.1858  -2.1944   0.0000   0.0000   0.0000   0.2610
  -5.000  -0.6270   0.01137   0.00472   0.0122  1.0000  0.2138  -2.0721   0.0000   0.0000   0.0000   0.2635
  -4.750  -0.6055   0.01104   0.00453   0.0132  1.0000  0.2436  -1.9587   0.0000   0.0000   0.0000   0.2660
  -4.500  -0.5837   0.01075   0.00437   0.0142  1.0000  0.2748  -1.8461   0.0000   0.0000   0.0000   0.2687
  -4.250  -0.5614   0.01049   0.00425   0.0150  1.0000  0.3072  -1.7340   0.0000   0.0000   0.0000   0.2712
  -4.000  -0.5370   0.01025   0.00414   0.0154  0.9997  0.3405  -1.6241   0.0000   0.0000   0.0000   0.2734
  -3.750  -0.4972   0.00996   0.00402   0.0126  0.9958  0.3813  -1.4896   0.0000   0.0000   0.0000   0.2702
  -3.500  -0.4576   0.00969   0.00391   0.0099  0.9917  0.4212  -1.3611   0.0000   0.0000   0.0000   0.2666
  -3.250  -0.4178   0.00944   0.00380   0.0072  0.9875  0.4601  -1.2421   0.0000   0.0000   0.0000   0.2624
  -3.000  -0.3793   0.00919   0.00369   0.0049  0.9822  0.4978  -1.1329   0.0000   0.0000   0.0000   0.2581
  -2.750  -0.3407   0.00894   0.00359   0.0026  0.9770  0.5341  -1.0307   0.0000   0.0000   0.0000   0.2529
  -2.500  -0.3002   0.00870   0.00348   0.0000  0.9728  0.5705  -0.9338   0.0000   0.0000   0.0000   0.2452
  -2.250  -0.2627   0.00846   0.00338  -0.0019  0.9665  0.6042  -0.8493   0.0000   0.0000   0.0000   0.2379
  -2.000  -0.2267   0.00823   0.00328  -0.0034  0.9596  0.6367  -0.7738   0.0000   0.0000   0.0000   0.2301
  -1.750  -0.1925   0.00802   0.00318  -0.0044  0.9515  0.6676  -0.7070   0.0000   0.0000   0.0000   0.2221
  -1.500  -0.1609   0.00782   0.00309  -0.0048  0.9416  0.6969  -0.6486   0.0000   0.0000   0.0000   0.2152
  -1.250  -0.1316   0.00764   0.00302  -0.0046  0.9297  0.7247  -0.5979   0.0000   0.0000   0.0000   0.2100
  -1.000  -0.1037   0.00748   0.00295  -0.0041  0.9163  0.7513  -0.5527   0.0000   0.0000   0.0000   0.2057
  -0.750  -0.0768   0.00736   0.00289  -0.0033  0.9017  0.7767  -0.5126   0.0000   0.0000   0.0000   0.2022
  -0.500  -0.0512   0.00727   0.00285  -0.0022  0.8839  0.8013  -0.4768   0.0000   0.0000   0.0000   0.2016
  -0.250  -0.0254   0.00722   0.00282  -0.0011  0.8661  0.8240  -0.4436   0.0000   0.0000   0.0000   0.2002
   0.000  -0.0000   0.00720   0.00283   0.0000  0.8453  0.8453  -0.4133   0.0000   0.0000   0.0000   0.4784
   0.250   0.0254   0.00722   0.00282   0.0011  0.8240  0.8661  -0.4436   0.0000   0.0000   0.0000   0.2002
   0.500   0.0512   0.00727   0.00285   0.0022  0.8013  0.8839  -0.4768   0.0000   0.0000   0.0000   0.2016
   0.750   0.0768   0.00736   0.00289   0.0033  0.7767  0.9017  -0.5126   0.0000   0.0000   0.0000   0.2022
   1.000   0.1037   0.00748   0.00295   0.0041  0.7513  0.9163  -0.5527   0.0000   0.0000   0.0000   0.2057
   1.250   0.1316   0.00764   0.00302   0.0046  0.7247  0.9297  -0.5979   0.0000   0.0000   0.0000   0.2100
   1.500   0.1609   0.00782   0.00309   0.0048  0.6969  0.9416  -0.6486   0.0000   0.0000   0.0000   0.2152
   1.750   0.1925   0.00802   0.00318   0.0044  0.6676  0.9515  -0.7070   0.0000   0.0000   0.0000   0.2221
   2.000   0.2267   0.00823   0.00328   0.0034  0.6367  0.9596  -0.7738   0.0000   0.0000   0.0000   0.2301
   2.250   0.2627   0.00846   0.00338   0.0019  0.6042  0.9665  -0.8493   0.0000   0.0000   0.0000   0.2379
   2.500   0.3002   0.00870   0.00348  -0.0000  0.5705  0.9728  -0.9338   0.0000   0.0000   0.0000   0.2452
   2.750   0.3407   0.00894   0.00359  -0.0026  0.5341  0.9770  -1.0307   0.0000   0.0000   0.0000   0.2529
   3.000   0.3793   0.00919   0.00369  -0.0049  0.4978  0.9822  -1.1329   0.0000   0.0000   0.0000   0.2581
   3.250   0.4178   0.00944   0.00380  -0.0072  0.4601  0.9875  -1.2422   0.0000   0.0000   0.0000   0.2624
   3.500   0.4576   0.00969   0.00391  -0.0099  0.4212  0.9918  -1.3611   0.0000   0.0000   0.0000   0.2666
   3.750   0.4973   0.00996   0.00402  -0.0126  0.3813  0.9959  -1.4896   0.0000   0.0000   0.0000   0.2702
   4.000   0.5370   0.01025   0.00414  -0.0154  0.3405  0.9997  -1.6241   0.0000   0.0000   0.0000   0.2734
   4.250   0.5613   0.01049   0.00425  -0.0150  0.3073  1.0000  -1.7339   0.0000   0.0000   0.0000   0.2712
   4.500   0.5837   0.01075   0.00437  -0.0142  0.2749  1.0000  -1.8459   0.0000   0.0000   0.0000   0.2686
   4.750   0.6055   0.01104   0.00452  -0.0132  0.2437  1.0000  -1.9585   0.0000   0.0000   0.0000   0.2660
   5.000   0.6269   0.01137   0.00472  -0.0122  0.2139  1.0000  -2.0719   0.0000   0.0000   0.0000   0.2635
   5.250   0.6481   0.01172   0.00495  -0.0111  0.1858  1.0000  -2.1942   0.0000   0.0000   0.0000   0.2610
   5.500   0.6689   0.01211   0.00521  -0.0100  0.1609  1.0000  -2.3192   0.0000   0.0000   0.0000   0.2585
   5.750   0.6895   0.01251   0.00550  -0.0088  0.1393  1.0000  -2.4452   0.0000   0.0000   0.0000   0.2561
   6.000   0.7098   0.01293   0.00584  -0.0075  0.1215  1.0000  -2.5719   0.0000   0.0000   0.0000   0.2537
   6.250   0.7299   0.01339   0.00621  -0.0061  0.1074  1.0000  -2.6989   0.0000   0.0000   0.0000   0.2513
   6.500   0.7500   0.01383   0.00659  -0.0048  0.0956  1.0000  -2.8365   0.0000   0.0000   0.0000   0.2491
   6.750   0.7698   0.01431   0.00702  -0.0034  0.0864  1.0000  -2.9773   0.0000   0.0000   0.0000   0.2468
   7.000   0.7896   0.01481   0.00749  -0.0020  0.0788  1.0000  -3.1194   0.0000   0.0000   0.0000   0.2447
   7.250   0.8097   0.01529   0.00795  -0.0006  0.0723  1.0000  -3.2641   0.0000   0.0000   0.0000   0.2427
   7.500   0.8297   0.01579   0.00846   0.0008  0.0668  1.0000  -3.4094   0.0000   0.0000   0.0000   0.2407
   7.750   0.8488   0.01638   0.00904   0.0023  0.0625  1.0000  -3.5523   0.0000   0.0000   0.0000   0.2387
   8.000   0.8680   0.01698   0.00961   0.0037  0.0586  1.0000  -3.6993   0.0000   0.0000   0.0000   0.2369
   8.250   0.8881   0.01753   0.01021   0.0051  0.0550  1.0000  -3.8591   0.0000   0.0000   0.0000   0.2352
   8.500   0.9062   0.01829   0.01092   0.0065  0.0520  1.0000  -4.0198   0.0000   0.0000   0.0000   0.2334
   8.750   0.9273   0.01881   0.01154   0.0077  0.0492  1.0000  -4.1884   0.0000   0.0000   0.0000   0.2321
   9.000   0.9464   0.01953   0.01223   0.0090  0.0469  1.0000  -4.3565   0.0000   0.0000   0.0000   0.2306
   9.250   0.9654   0.02034   0.01311   0.0103  0.0448  1.0000  -4.5170   0.0000   0.0000   0.0000   0.2291
   9.500   0.9855   0.02099   0.01381   0.0115  0.0427  1.0000  -4.6900   0.0000   0.0000   0.0000   0.2279
   9.750   1.0030   0.02198   0.01474   0.0128  0.0409  1.0000  -4.8570   0.0000   0.0000   0.0000   0.2265
  10.000   1.0227   0.02270   0.01560   0.0139  0.0393  1.0000  -5.0235   0.0000   0.0000   0.0000   0.2253
  10.250   1.0415   0.02349   0.01647   0.0151  0.0377  1.0000  -5.1928   0.0000   0.0000   0.0000   0.2241
  10.500   1.0596   0.02438   0.01735   0.0163  0.0365  1.0000  -5.3660   0.0000   0.0000   0.0000   0.2229
  10.750   1.0761   0.02570   0.01871   0.0176  0.0354  1.0000  -5.5346   0.0000   0.0000   0.0000   0.2216
  11.000   1.0930   0.02665   0.01983   0.0190  0.0343  1.0000  -5.7080   0.0000   0.0000   0.0000   0.2202
  11.250   1.1091   0.02763   0.02093   0.0204  0.0331  1.0000  -5.8856   0.0000   0.0000   0.0000   0.2189
  11.500   1.1247   0.02856   0.02190   0.0217  0.0321  1.0000  -6.0729   0.0000   0.0000   0.0000   0.2176
  11.750   1.1398   0.02983   0.02315   0.0229  0.0312  1.0000  -6.2585   0.0000   0.0000   0.0000   0.2165
  12.000   1.1506   0.03130   0.02478   0.0247  0.0304  1.0000  -6.4022   0.0000   0.0000   0.0000   0.2147
  12.250   1.1581   0.03258   0.02627   0.0270  0.0297  1.0000  -6.5322   0.0000   0.0000   0.0000   0.2125
  12.500   1.1648   0.03401   0.02787   0.0292  0.0291  1.0000  -6.6597   0.0000   0.0000   0.0000   0.2104
  12.750   1.1708   0.03552   0.02951   0.0311  0.0285  1.0000  -6.7871   0.0000   0.0000   0.0000   0.2085
  13.000   1.1758   0.03711   0.03123   0.0327  0.0279  1.0000  -6.9125   0.0000   0.0000   0.0000   0.2068
  13.250   1.1810   0.03877   0.03298   0.0341  0.0275  1.0000  -7.0427   0.0000   0.0000   0.0000   0.2054
  13.500   1.1862   0.04060   0.03488   0.0351  0.0270  1.0000  -7.1734   0.0000   0.0000   0.0000   0.2042
  13.750   1.1896   0.04303   0.03738   0.0361  0.0266  1.0000  -7.2802   0.0000   0.0000   0.0000   0.2030
  14.000   1.1835   0.04625   0.04080   0.0369  0.0263  1.0000  -7.3106   0.0000   0.0000   0.0000   0.2017
  14.250   1.1739   0.04953   0.04434   0.0370  0.0261  1.0000  -7.3234   0.0000   0.0000   0.0000   0.2009
  14.500   1.1619   0.05345   0.04851   0.0361  0.0260  1.0000  -7.3127   0.0000   0.0000   0.0000   0.2008
  14.750   1.1474   0.05810   0.05340   0.0344  0.0258  1.0000  -7.2765   0.0000   0.0000   0.0000   0.2013
  15.000   1.1302   0.06355   0.05910   0.0318  0.0257  1.0000  -7.2115   0.0000   0.0000   0.0000   0.2026
  15.250   1.1099   0.06991   0.06569   0.0281  0.0256  1.0000  -7.1125   0.0000   0.0000   0.0000   0.2048
  15.500   1.0859   0.07734   0.07334   0.0235  0.0256  1.0000  -6.9725   0.0000   0.0000   0.0000   0.2079
  15.750   1.0579   0.08597   0.08219   0.0180  0.0257  1.0000  -6.7827   0.0000   0.0000   0.0000   0.2120
  16.000   1.0254   0.09611   0.09253   0.0114  0.0258  1.0000  -6.5324   0.0000   0.0000   0.0000   0.2174
  16.250   0.9875   0.10808   0.10469   0.0037  0.0261  1.0000  -6.2011   0.0000   0.0000   0.0000   0.2244
  17.250   0.7642   0.19874   0.19571  -0.0405  0.0357  1.0000  -2.4126   0.0000   0.0000   0.0000   0.2838
  17.500   0.7519   0.20824   0.20517  -0.0488  0.0338  1.0000  -1.9982   0.0000   0.0000   0.0000   0.2959
  17.750   0.7589   0.21181   0.20874  -0.0508  0.0327  1.0000  -2.0011   0.0000   0.0000   0.0000   0.2976
  18.000   0.7673   0.21481   0.21174  -0.0523  0.0319  1.0000  -2.0386   0.0000   0.0000   0.0000   0.2984
  18.250   0.7769   0.21741   0.21435  -0.0534  0.0314  1.0000  -2.1082   0.0000   0.0000   0.0000   0.2985
  18.500   0.7892   0.21965   0.21661  -0.0534  0.0311  1.0000  -2.2328   0.0000   0.0000   0.0000   0.2969
  18.750   0.7964   0.22391   0.22086  -0.0551  0.0308  1.0000  -2.2242   0.0000   0.0000   0.0000   0.2981
  19.000   0.7940   0.23042   0.22735  -0.0616  0.0285  1.0000  -1.9378   0.0000   0.0000   0.0000   0.3064
  19.250   0.8023   0.23355   0.23048  -0.0635  0.0277  1.0000  -1.9660   0.0000   0.0000   0.0000   0.3075
  19.500   0.8111   0.23633   0.23327  -0.0650  0.0271  1.0000  -2.0247   0.0000   0.0000   0.0000   0.3081
  19.750   0.8209   0.23884   0.23579  -0.0661  0.0268  1.0000  -2.1133   0.0000   0.0000   0.0000   0.3080
  20.000   0.8328   0.24139   0.23836  -0.0662  0.0265  1.0000  -2.2498   0.0000   0.0000   0.0000   0.3064


