xflr5 v6.61

 Calculated polar for: NACA 0012

 1 1 Reynolds number fixed          Mach number fixed         

 xtrf =   1.000 (top)        1.000 (bottom)
 Mach =   0.000     Re =     0.840 e 6     Ncrit =   9.000

  alpha     CL        CD       CDp       Cm    Top Xtr Bot Xtr   Cpmin    Chinge    XCp    
 ------- -------- --------- --------- -------- ------- ------- -------- --------- ---------
 -10.000  -1.0731   0.01600   0.00995  -0.0063  1.0000  0.0269  -5.4425   0.0000   0.0000   0.0000   0.2330
  -9.750  -1.0525   0.01544   0.00938  -0.0052  1.0000  0.0283  -5.2457   0.0000   0.0000   0.0000   0.2342
  -9.500  -1.0304   0.01504   0.00895  -0.0043  1.0000  0.0295  -5.0437   0.0000   0.0000   0.0000   0.2353
  -9.250  -1.0080   0.01470   0.00857  -0.0034  1.0000  0.0307  -4.8440   0.0000   0.0000   0.0000   0.2365
  -9.000  -0.9881   0.01415   0.00801  -0.0020  1.0000  0.0324  -4.6607   0.0000   0.0000   0.0000   0.2381
  -8.750  -0.9667   0.01378   0.00763  -0.0009  1.0000  0.0341  -4.4690   0.0000   0.0000   0.0000   0.2395
  -8.250  -0.9243   0.01303   0.00687   0.0015  1.0000  0.0382  -4.0983   0.0000   0.0000   0.0000   0.2426
  -8.000  -0.9025   0.01276   0.00657   0.0027  1.0000  0.0405  -3.9138   0.0000   0.0000   0.0000   0.2442
  -7.750  -0.8821   0.01236   0.00619   0.0040  1.0000  0.0434  -3.7485   0.0000   0.0000   0.0000   0.2461
  -7.500  -0.8606   0.01211   0.00591   0.0052  1.0000  0.0462  -3.5848   0.0000   0.0000   0.0000   0.2479
  -7.250  -0.8402   0.01175   0.00558   0.0066  1.0000  0.0500  -3.4278   0.0000   0.0000   0.0000   0.2499
  -7.000  -0.8192   0.01146   0.00530   0.0079  1.0000  0.0542  -3.2708   0.0000   0.0000   0.0000   0.2519
  -6.750  -0.7981   0.01119   0.00504   0.0092  1.0000  0.0591  -3.1156   0.0000   0.0000   0.0000   0.2540
  -6.500  -0.7769   0.01093   0.00480   0.0104  1.0000  0.0649  -2.9628   0.0000   0.0000   0.0000   0.2562
  -6.000  -0.7119   0.01028   0.00427   0.0080  0.9975  0.0841  -2.6088   0.0000   0.0000   0.0000   0.2544
  -5.750  -0.6772   0.00995   0.00401   0.0064  0.9954  0.0978  -2.4395   0.0000   0.0000   0.0000   0.2528
  -5.500  -0.6418   0.00962   0.00377   0.0046  0.9935  0.1141  -2.2719   0.0000   0.0000   0.0000   0.2507
  -5.250  -0.6072   0.00928   0.00354   0.0030  0.9912  0.1341  -2.1100   0.0000   0.0000   0.0000   0.2486
  -5.000  -0.5722   0.00894   0.00331   0.0013  0.9888  0.1566  -1.9605   0.0000   0.0000   0.0000   0.2461
  -4.750  -0.5361   0.00861   0.00310  -0.0007  0.9871  0.1832  -1.8142   0.0000   0.0000   0.0000   0.2427
  -4.500  -0.5023   0.00828   0.00290  -0.0021  0.9836  0.2109  -1.6765   0.0000   0.0000   0.0000   0.2400
  -4.250  -0.4668   0.00795   0.00271  -0.0038  0.9811  0.2411  -1.5471   0.0000   0.0000   0.0000   0.2359
  -4.000  -0.4345   0.00766   0.00254  -0.0048  0.9762  0.2714  -1.4284   0.0000   0.0000   0.0000   0.2331
  -3.750  -0.4026   0.00737   0.00239  -0.0057  0.9711  0.3017  -1.3175   0.0000   0.0000   0.0000   0.2301
  -3.500  -0.3727   0.00712   0.00224  -0.0061  0.9643  0.3319  -1.2163   0.0000   0.0000   0.0000   0.2280
  -3.250  -0.3449   0.00689   0.00211  -0.0060  0.9553  0.3608  -1.1249   0.0000   0.0000   0.0000   0.2272
  -3.000  -0.3181   0.00668   0.00200  -0.0056  0.9451  0.3893  -1.0393   0.0000   0.0000   0.0000   0.2270
  -2.750  -0.2919   0.00649   0.00189  -0.0051  0.9330  0.4175  -0.9619   0.0000   0.0000   0.0000   0.2272
  -2.500  -0.2657   0.00631   0.00179  -0.0046  0.9197  0.4457  -0.8890   0.0000   0.0000   0.0000   0.2276
  -2.250  -0.2395   0.00616   0.00170  -0.0040  0.9053  0.4737  -0.8211   0.0000   0.0000   0.0000   0.2281
  -2.000  -0.2131   0.00602   0.00162  -0.0035  0.8897  0.5016  -0.7584   0.0000   0.0000   0.0000   0.2285
  -1.750  -0.1866   0.00590   0.00154  -0.0030  0.8721  0.5294  -0.7006   0.0000   0.0000   0.0000   0.2288
  -1.250  -0.1335   0.00572   0.00143  -0.0021  0.8332  0.5844  -0.5992   0.0000   0.0000   0.0000   0.2293
  -1.000  -0.1069   0.00565   0.00138  -0.0017  0.8120  0.6115  -0.5551   0.0000   0.0000   0.0000   0.2296
  -0.750  -0.0802   0.00560   0.00134  -0.0012  0.7892  0.6382  -0.5150   0.0000   0.0000   0.0000   0.2298
  -0.500  -0.0535   0.00556   0.00132  -0.0008  0.7657  0.6645  -0.4783   0.0000   0.0000   0.0000   0.2298
  -0.250  -0.0267   0.00555   0.00130  -0.0004  0.7415  0.6906  -0.4446   0.0000   0.0000   0.0000   0.2298
   0.000   0.0000   0.00555   0.00130  -0.0000  0.7164  0.7164  -0.4136   0.0000   0.0000   0.0000   0.4641
   0.250   0.0267   0.00555   0.00130   0.0004  0.6906  0.7415  -0.4446   0.0000   0.0000   0.0000   0.2298
   0.500   0.0535   0.00556   0.00132   0.0008  0.6645  0.7657  -0.4783   0.0000   0.0000   0.0000   0.2298
   0.750   0.0802   0.00560   0.00134   0.0012  0.6382  0.7892  -0.5150   0.0000   0.0000   0.0000   0.2298
   1.000   0.1069   0.00565   0.00138   0.0017  0.6115  0.8120  -0.5551   0.0000   0.0000   0.0000   0.2296
   1.250   0.1335   0.00572   0.00143   0.0021  0.5844  0.8332  -0.5992   0.0000   0.0000   0.0000   0.2293
   1.750   0.1867   0.00590   0.00154   0.0030  0.5294  0.8721  -0.7006   0.0000   0.0000   0.0000   0.2288
   2.000   0.2131   0.00602   0.00162   0.0035  0.5016  0.8897  -0.7584   0.0000   0.0000   0.0000   0.2285
   2.250   0.2395   0.00616   0.00170   0.0040  0.4737  0.9053  -0.8211   0.0000   0.0000   0.0000   0.2281
   2.500   0.2657   0.00631   0.00179   0.0046  0.4457  0.9197  -0.8890   0.0000   0.0000   0.0000   0.2276
   2.750   0.2919   0.00649   0.00189   0.0051  0.4175  0.9330  -0.9619   0.0000   0.0000   0.0000   0.2272
   3.000   0.3181   0.00668   0.00200   0.0056  0.3893  0.9451  -1.0393   0.0000   0.0000   0.0000   0.2270
   3.250   0.3449   0.00689   0.00211   0.0060  0.3608  0.9553  -1.1249   0.0000   0.0000   0.0000   0.2272
   3.500   0.3727   0.00712   0.00224   0.0061  0.3319  0.9643  -1.2163   0.0000   0.0000   0.0000   0.2280
   3.750   0.4026   0.00737   0.00239   0.0057  0.3017  0.9711  -1.3175   0.0000   0.0000   0.0000   0.2301
   4.000   0.4345   0.00766   0.00254   0.0048  0.2714  0.9762  -1.4284   0.0000   0.0000   0.0000   0.2331
   4.250   0.4668   0.00795   0.00271   0.0038  0.2411  0.9811  -1.5471   0.0000   0.0000   0.0000   0.2359
   4.500   0.5023   0.00828   0.00290   0.0021  0.2109  0.9836  -1.6765   0.0000   0.0000   0.0000   0.2400
   4.750   0.5361   0.00861   0.00310   0.0007  0.1832  0.9871  -1.8142   0.0000   0.0000   0.0000   0.2427
   5.000   0.5722   0.00894   0.00331  -0.0013  0.1565  0.9888  -1.9606   0.0000   0.0000   0.0000   0.2461
   5.250   0.6073   0.00928   0.00354  -0.0030  0.1340  0.9912  -2.1101   0.0000   0.0000   0.0000   0.2486
   5.500   0.6419   0.00962   0.00377  -0.0046  0.1141  0.9936  -2.2720   0.0000   0.0000   0.0000   0.2507
   5.750   0.6772   0.00994   0.00401  -0.0064  0.0978  0.9954  -2.4395   0.0000   0.0000   0.0000   0.2528
   6.000   0.7119   0.01028   0.00427  -0.0080  0.0841  0.9975  -2.6089   0.0000   0.0000   0.0000   0.2544
   6.250   0.7471   0.01061   0.00453  -0.0098  0.0729  0.9990  -2.7866   0.0000   0.0000   0.0000   0.2561
   6.500   0.7768   0.01093   0.00480  -0.0104  0.0649  1.0000  -2.9626   0.0000   0.0000   0.0000   0.2561
   6.750   0.7980   0.01119   0.00504  -0.0092  0.0591  1.0000  -3.1153   0.0000   0.0000   0.0000   0.2540
   7.000   0.8191   0.01146   0.00530  -0.0079  0.0542  1.0000  -3.2706   0.0000   0.0000   0.0000   0.2519
   7.250   0.8401   0.01175   0.00558  -0.0066  0.0500  1.0000  -3.4275   0.0000   0.0000   0.0000   0.2499
   7.500   0.8605   0.01211   0.00591  -0.0052  0.0462  1.0000  -3.5846   0.0000   0.0000   0.0000   0.2479
   7.750   0.8821   0.01236   0.00618  -0.0040  0.0434  1.0000  -3.7482   0.0000   0.0000   0.0000   0.2461
   8.000   0.9025   0.01276   0.00657  -0.0026  0.0405  1.0000  -3.9136   0.0000   0.0000   0.0000   0.2442
   8.250   0.9243   0.01303   0.00686  -0.0015  0.0382  1.0000  -4.0982   0.0000   0.0000   0.0000   0.2426
   8.500   0.9444   0.01350   0.00731  -0.0001  0.0357  1.0000  -4.2770   0.0000   0.0000   0.0000   0.2408
   8.750   0.9666   0.01378   0.00763   0.0009  0.0341  1.0000  -4.4688   0.0000   0.0000   0.0000   0.2395
   9.000   0.9881   0.01415   0.00801   0.0020  0.0324  1.0000  -4.6606   0.0000   0.0000   0.0000   0.2381
   9.250   1.0080   0.01470   0.00857   0.0034  0.0307  1.0000  -4.8440   0.0000   0.0000   0.0000   0.2365
   9.500   1.0304   0.01504   0.00895   0.0043  0.0295  1.0000  -5.0437   0.0000   0.0000   0.0000   0.2353
   9.750   1.0526   0.01544   0.00938   0.0052  0.0283  1.0000  -5.2459   0.0000   0.0000   0.0000   0.2342
  10.000   1.0731   0.01600   0.00995   0.0063  0.0269  1.0000  -5.4427   0.0000   0.0000   0.0000   0.2330
  10.250   1.0941   0.01654   0.01054   0.0073  0.0259  1.0000  -5.6408   0.0000   0.0000   0.0000   0.2319
  10.500   1.1164   0.01696   0.01100   0.0082  0.0249  1.0000  -5.8514   0.0000   0.0000   0.0000   0.2309
  10.750   1.1380   0.01743   0.01151   0.0090  0.0240  1.0000  -6.0764   0.0000   0.0000   0.0000   0.2300
  11.000   1.1582   0.01802   0.01213   0.0101  0.0231  1.0000  -6.3001   0.0000   0.0000   0.0000   0.2289
  11.250   1.1740   0.01899   0.01313   0.0116  0.0222  1.0000  -6.4937   0.0000   0.0000   0.0000   0.2273
  11.500   1.1949   0.01947   0.01369   0.0126  0.0217  1.0000  -6.7256   0.0000   0.0000   0.0000   0.2263
  11.750   1.2146   0.02005   0.01434   0.0136  0.0211  1.0000  -6.9527   0.0000   0.0000   0.0000   0.2253
  12.000   1.2333   0.02068   0.01502   0.0147  0.0205  1.0000  -7.1784   0.0000   0.0000   0.0000   0.2242
  12.250   1.2512   0.02133   0.01573   0.0160  0.0200  1.0000  -7.4039   0.0000   0.0000   0.0000   0.2230
  12.500   1.2673   0.02207   0.01652   0.0173  0.0195  1.0000  -7.6224   0.0000   0.0000   0.0000   0.2217
  12.750   1.2775   0.02309   0.01758   0.0195  0.0189  1.0000  -7.8050   0.0000   0.0000   0.0000   0.2197
  13.000   1.2803   0.02443   0.01901   0.0225  0.0184  1.0000  -7.9392   0.0000   0.0000   0.0000   0.2169
  13.250   1.2940   0.02515   0.01982   0.0241  0.0181  1.0000  -8.1492   0.0000   0.0000   0.0000   0.2155
  13.500   1.3058   0.02604   0.02080   0.0256  0.0178  1.0000  -8.3478   0.0000   0.0000   0.0000   0.2141
  13.750   1.3157   0.02711   0.02195   0.0272  0.0174  1.0000  -8.5354   0.0000   0.0000   0.0000   0.2126
  14.000   1.3241   0.02835   0.02328   0.0285  0.0171  1.0000  -8.7130   0.0000   0.0000   0.0000   0.2113
  14.250   1.3315   0.02975   0.02477   0.0297  0.0168  1.0000  -8.8850   0.0000   0.0000   0.0000   0.2100
  14.500   1.3378   0.03134   0.02644   0.0306  0.0165  1.0000  -9.0508   0.0000   0.0000   0.0000   0.2090
  14.750   1.3430   0.03317   0.02835   0.0312  0.0162  1.0000  -9.2081   0.0000   0.0000   0.0000   0.2082
  15.000   1.3463   0.03531   0.03058   0.0314  0.0160  1.0000  -9.3513   0.0000   0.0000   0.0000   0.2075
  15.250   1.3469   0.03792   0.03328   0.0312  0.0158  1.0000  -9.4712   0.0000   0.0000   0.0000   0.2071
  15.500   1.3436   0.04116   0.03662   0.0305  0.0156  1.0000  -9.5565   0.0000   0.0000   0.0000   0.2070
  15.750   1.3359   0.04518   0.04076   0.0293  0.0153  1.0000  -9.5991   0.0000   0.0000   0.0000   0.2073
  16.000   1.3231   0.05006   0.04579   0.0274  0.0152  1.0000  -9.5911   0.0000   0.0000   0.0000   0.2078
  16.250   1.3078   0.05551   0.05138   0.0251  0.0150  1.0000  -9.5573   0.0000   0.0000   0.0000   0.2088
  16.500   1.3010   0.06003   0.05603   0.0229  0.0149  1.0000  -9.6037   0.0000   0.0000   0.0000   0.2098
  16.750   1.2917   0.06505   0.06118   0.0203  0.0149  1.0000  -9.6225   0.0000   0.0000   0.0000   0.2110
  17.000   1.2796   0.07052   0.06678   0.0176  0.0148  1.0000  -9.6119   0.0000   0.0000   0.0000   0.2124
  17.250   1.2657   0.07644   0.07282   0.0146  0.0148  1.0000  -9.5776   0.0000   0.0000   0.0000   0.2141
  17.500   1.2501   0.08276   0.07927   0.0113  0.0147  1.0000  -9.5191   0.0000   0.0000   0.0000   0.2160
  17.750   1.2330   0.08944   0.08608   0.0079  0.0147  1.0000  -9.4391   0.0000   0.0000   0.0000   0.2181
  18.000   1.2152   0.09643   0.09319   0.0042  0.0146  1.0000  -9.3413   0.0000   0.0000   0.0000   0.2204
  18.250   1.1964   0.10367   0.10056   0.0004  0.0146  1.0000  -9.2245   0.0000   0.0000   0.0000   0.2230
  18.500   1.1771   0.11118   0.10819  -0.0036  0.0146  1.0000  -9.0904   0.0000   0.0000   0.0000   0.2259
  18.750   1.1574   0.11896   0.11609  -0.0077  0.0145  1.0000  -8.9373   0.0000   0.0000   0.0000   0.2290
  19.000   1.1369   0.12705   0.12430  -0.0121  0.0145  1.0000  -8.7591   0.0000   0.0000   0.0000   0.2325
  19.250   1.1153   0.13561   0.13299  -0.0169  0.0144  1.0000  -8.5487   0.0000   0.0000   0.0000   0.2366
  19.500   1.0915   0.14497   0.14247  -0.0223  0.0144  1.0000  -8.2837   0.0000   0.0000   0.0000   0.2414
  19.750   1.0612   0.15618   0.15384  -0.0288  0.0144  1.0000  -7.8929   0.0000   0.0000   0.0000   0.2479


