xflr5 v6.61

 Calculated polar for: NACA 0012

 1 1 Reynolds number fixed          Mach number fixed         

 xtrf =   1.000 (top)        1.000 (bottom)
 Mach =   0.000     Re =     0.640 e 6     Ncrit =   9.000

  alpha     CL        CD       CDp       Cm    Top Xtr Bot Xtr   Cpmin    Chinge    XCp    
 ------- -------- --------- --------- -------- ------- ------- -------- --------- ---------
 -10.000  -1.0587   0.01767   0.01137  -0.0085  1.0000  0.0300  -5.3302   0.0000   0.0000   0.0000   0.2308
  -9.750  -1.0376   0.01715   0.01078  -0.0075  1.0000  0.0311  -5.1392   0.0000   0.0000   0.0000   0.2320
  -9.500  -1.0190   0.01641   0.01005  -0.0062  1.0000  0.0326  -4.9601   0.0000   0.0000   0.0000   0.2335
  -9.250  -0.9975   0.01596   0.00957  -0.0051  1.0000  0.0341  -4.7671   0.0000   0.0000   0.0000   0.2347
  -9.000  -0.9754   0.01559   0.00914  -0.0042  1.0000  0.0356  -4.5756   0.0000   0.0000   0.0000   0.2358
  -8.750  -0.9563   0.01497   0.00853  -0.0027  1.0000  0.0377  -4.3998   0.0000   0.0000   0.0000   0.2375
  -8.500  -0.9348   0.01461   0.00814  -0.0016  1.0000  0.0399  -4.2133   0.0000   0.0000   0.0000   0.2389
  -8.250  -0.9146   0.01413   0.00765  -0.0003  1.0000  0.0423  -4.0380   0.0000   0.0000   0.0000   0.2407
  -8.000  -0.8935   0.01376   0.00727   0.0009  1.0000  0.0449  -3.8593   0.0000   0.0000   0.0000   0.2423
  -7.750  -0.8730   0.01334   0.00684   0.0023  1.0000  0.0479  -3.6989   0.0000   0.0000   0.0000   0.2441
  -7.500  -0.8518   0.01302   0.00651   0.0035  1.0000  0.0513  -3.5386   0.0000   0.0000   0.0000   0.2459
  -7.250  -0.8314   0.01263   0.00615   0.0049  1.0000  0.0555  -3.3837   0.0000   0.0000   0.0000   0.2479
  -7.000  -0.8106   0.01229   0.00582   0.0062  1.0000  0.0603  -3.2298   0.0000   0.0000   0.0000   0.2499
  -6.750  -0.7897   0.01197   0.00551   0.0075  1.0000  0.0658  -3.0778   0.0000   0.0000   0.0000   0.2520
  -6.500  -0.7689   0.01165   0.00522   0.0088  1.0000  0.0724  -2.9278   0.0000   0.0000   0.0000   0.2541
  -6.250  -0.7480   0.01134   0.00496   0.0100  1.0000  0.0807  -2.7799   0.0000   0.0000   0.0000   0.2564
  -6.000  -0.7269   0.01104   0.00471   0.0112  1.0000  0.0907  -2.6425   0.0000   0.0000   0.0000   0.2586
  -5.750  -0.7055   0.01076   0.00448   0.0124  1.0000  0.1024  -2.5094   0.0000   0.0000   0.0000   0.2609
  -5.500  -0.6704   0.01040   0.00422   0.0106  0.9981  0.1207  -2.3417   0.0000   0.0000   0.0000   0.2594
  -5.250  -0.6345   0.01004   0.00398   0.0086  0.9959  0.1430  -2.1756   0.0000   0.0000   0.0000   0.2574
  -5.000  -0.5984   0.00968   0.00374   0.0066  0.9936  0.1688  -2.0179   0.0000   0.0000   0.0000   0.2550
  -4.750  -0.5629   0.00932   0.00352   0.0048  0.9908  0.1975  -1.8720   0.0000   0.0000   0.0000   0.2526
  -4.500  -0.5266   0.00898   0.00332   0.0028  0.9882  0.2290  -1.7277   0.0000   0.0000   0.0000   0.2495
  -4.250  -0.4909   0.00864   0.00313   0.0010  0.9851  0.2619  -1.5936   0.0000   0.0000   0.0000   0.2462
  -4.000  -0.4546   0.00832   0.00295  -0.0010  0.9820  0.2959  -1.4661   0.0000   0.0000   0.0000   0.2422
  -3.750  -0.4176   0.00801   0.00279  -0.0031  0.9793  0.3303  -1.3432   0.0000   0.0000   0.0000   0.2371
  -3.500  -0.3834   0.00772   0.00263  -0.0044  0.9745  0.3632  -1.2342   0.0000   0.0000   0.0000   0.2330
  -3.250  -0.3508   0.00745   0.00249  -0.0054  0.9687  0.3956  -1.1339   0.0000   0.0000   0.0000   0.2291
  -3.000  -0.3194   0.00721   0.00236  -0.0061  0.9618  0.4271  -1.0411   0.0000   0.0000   0.0000   0.2255
  -2.500  -0.2626   0.00678   0.00213  -0.0060  0.9424  0.4865  -0.8851   0.0000   0.0000   0.0000   0.2220
  -2.250  -0.2360   0.00660   0.00203  -0.0055  0.9301  0.5153  -0.8171   0.0000   0.0000   0.0000   0.2215
  -2.000  -0.2096   0.00643   0.00194  -0.0049  0.9167  0.5438  -0.7547   0.0000   0.0000   0.0000   0.2214
  -1.500  -0.1574   0.00616   0.00179  -0.0037  0.8854  0.5998  -0.6450   0.0000   0.0000   0.0000   0.2218
  -1.250  -0.1314   0.00605   0.00173  -0.0030  0.8676  0.6273  -0.5975   0.0000   0.0000   0.0000   0.2222
  -1.000  -0.1052   0.00596   0.00168  -0.0024  0.8482  0.6544  -0.5538   0.0000   0.0000   0.0000   0.2224
  -0.750  -0.0790   0.00589   0.00163  -0.0018  0.8277  0.6811  -0.5142   0.0000   0.0000   0.0000   0.2228
  -0.500  -0.0526   0.00584   0.00161  -0.0012  0.8053  0.7073  -0.4778   0.0000   0.0000   0.0000   0.2227
  -0.250  -0.0263   0.00582   0.00159  -0.0006  0.7823  0.7331  -0.4444   0.0000   0.0000   0.0000   0.2224
   0.000   0.0000   0.00581   0.00158  -0.0000  0.7583  0.7583  -0.4137   0.0000   0.0000   0.0000   0.4201
   0.250   0.0263   0.00582   0.00159   0.0006  0.7331  0.7823  -0.4444   0.0000   0.0000   0.0000   0.2224
   0.500   0.0526   0.00584   0.00161   0.0012  0.7073  0.8053  -0.4778   0.0000   0.0000   0.0000   0.2227
   0.750   0.0790   0.00589   0.00163   0.0018  0.6811  0.8277  -0.5142   0.0000   0.0000   0.0000   0.2228
   1.000   0.1052   0.00596   0.00168   0.0024  0.6544  0.8482  -0.5538   0.0000   0.0000   0.0000   0.2224
   1.250   0.1314   0.00605   0.00173   0.0030  0.6273  0.8676  -0.5975   0.0000   0.0000   0.0000   0.2222
   1.500   0.1574   0.00616   0.00179   0.0037  0.5998  0.8854  -0.6450   0.0000   0.0000   0.0000   0.2218
   2.000   0.2096   0.00643   0.00194   0.0049  0.5438  0.9167  -0.7547   0.0000   0.0000   0.0000   0.2214
   2.250   0.2360   0.00660   0.00203   0.0055  0.5153  0.9301  -0.8171   0.0000   0.0000   0.0000   0.2215
   2.500   0.2626   0.00678   0.00213   0.0060  0.4865  0.9423  -0.8851   0.0000   0.0000   0.0000   0.2220
   2.750   0.2901   0.00699   0.00224   0.0063  0.4572  0.9531  -0.9594   0.0000   0.0000   0.0000   0.2231
   3.000   0.3194   0.00721   0.00236   0.0061  0.4271  0.9618  -1.0411   0.0000   0.0000   0.0000   0.2255
   3.250   0.3508   0.00745   0.00249   0.0054  0.3956  0.9687  -1.1339   0.0000   0.0000   0.0000   0.2291
   3.500   0.3834   0.00772   0.00263   0.0044  0.3632  0.9745  -1.2342   0.0000   0.0000   0.0000   0.2330
   3.750   0.4176   0.00801   0.00279   0.0031  0.3303  0.9794  -1.3432   0.0000   0.0000   0.0000   0.2371
   4.000   0.4546   0.00832   0.00295   0.0010  0.2959  0.9820  -1.4661   0.0000   0.0000   0.0000   0.2422
   4.250   0.4909   0.00864   0.00313  -0.0010  0.2619  0.9851  -1.5936   0.0000   0.0000   0.0000   0.2462
   4.500   0.5266   0.00897   0.00332  -0.0028  0.2290  0.9882  -1.7277   0.0000   0.0000   0.0000   0.2495
   4.750   0.5629   0.00932   0.00352  -0.0048  0.1975  0.9908  -1.8721   0.0000   0.0000   0.0000   0.2526
   5.000   0.5984   0.00968   0.00374  -0.0066  0.1688  0.9936  -2.0180   0.0000   0.0000   0.0000   0.2550
   5.250   0.6346   0.01004   0.00398  -0.0087  0.1430  0.9959  -2.1757   0.0000   0.0000   0.0000   0.2574
   5.500   0.6704   0.01040   0.00422  -0.0106  0.1207  0.9982  -2.3418   0.0000   0.0000   0.0000   0.2594
   5.750   0.7055   0.01076   0.00448  -0.0124  0.1024  1.0000  -2.5092   0.0000   0.0000   0.0000   0.2609
   6.000   0.7268   0.01104   0.00471  -0.0112  0.0907  1.0000  -2.6423   0.0000   0.0000   0.0000   0.2586
   6.250   0.7479   0.01134   0.00496  -0.0100  0.0807  1.0000  -2.7797   0.0000   0.0000   0.0000   0.2563
   6.500   0.7688   0.01165   0.00522  -0.0088  0.0725  1.0000  -2.9276   0.0000   0.0000   0.0000   0.2541
   6.750   0.7897   0.01197   0.00551  -0.0075  0.0658  1.0000  -3.0775   0.0000   0.0000   0.0000   0.2520
   7.000   0.8105   0.01229   0.00582  -0.0062  0.0603  1.0000  -3.2296   0.0000   0.0000   0.0000   0.2499
   7.250   0.8313   0.01262   0.00615  -0.0049  0.0555  1.0000  -3.3835   0.0000   0.0000   0.0000   0.2479
   7.500   0.8517   0.01301   0.00651  -0.0035  0.0514  1.0000  -3.5384   0.0000   0.0000   0.0000   0.2459
   7.750   0.8729   0.01334   0.00684  -0.0023  0.0479  1.0000  -3.6987   0.0000   0.0000   0.0000   0.2441
   8.000   0.8934   0.01376   0.00727  -0.0009  0.0449  1.0000  -3.8592   0.0000   0.0000   0.0000   0.2423
   8.250   0.9145   0.01413   0.00765   0.0003  0.0423  1.0000  -4.0379   0.0000   0.0000   0.0000   0.2406
   8.500   0.9347   0.01461   0.00814   0.0016  0.0399  1.0000  -4.2132   0.0000   0.0000   0.0000   0.2389
   8.750   0.9563   0.01497   0.00853   0.0027  0.0377  1.0000  -4.3997   0.0000   0.0000   0.0000   0.2375
   9.000   0.9754   0.01559   0.00914   0.0042  0.0356  1.0000  -4.5756   0.0000   0.0000   0.0000   0.2358
   9.250   0.9976   0.01596   0.00957   0.0051  0.0341  1.0000  -4.7672   0.0000   0.0000   0.0000   0.2347
   9.500   1.0191   0.01641   0.01005   0.0062  0.0326  1.0000  -4.9602   0.0000   0.0000   0.0000   0.2335
   9.750   1.0377   0.01715   0.01078   0.0075  0.0311  1.0000  -5.1394   0.0000   0.0000   0.0000   0.2320
  10.000   1.0588   0.01766   0.01137   0.0085  0.0300  1.0000  -5.3305   0.0000   0.0000   0.0000   0.2308
  10.250   1.0800   0.01817   0.01193   0.0095  0.0288  1.0000  -5.5274   0.0000   0.0000   0.0000   0.2298
  10.500   1.1008   0.01870   0.01249   0.0105  0.0277  1.0000  -5.7287   0.0000   0.0000   0.0000   0.2287
  10.750   1.1166   0.01966   0.01346   0.0120  0.0265  1.0000  -5.9146   0.0000   0.0000   0.0000   0.2271
  11.000   1.1368   0.02023   0.01411   0.0131  0.0258  1.0000  -6.1300   0.0000   0.0000   0.0000   0.2261
  11.250   1.1560   0.02085   0.01481   0.0142  0.0249  1.0000  -6.3431   0.0000   0.0000   0.0000   0.2249
  11.500   1.1743   0.02152   0.01554   0.0154  0.0242  1.0000  -6.5558   0.0000   0.0000   0.0000   0.2238
  11.750   1.1915   0.02224   0.01630   0.0167  0.0235  1.0000  -6.7675   0.0000   0.0000   0.0000   0.2225
  12.000   1.2053   0.02318   0.01728   0.0183  0.0228  1.0000  -6.9609   0.0000   0.0000   0.0000   0.2209
  12.250   1.2111   0.02457   0.01874   0.0210  0.0222  1.0000  -7.1006   0.0000   0.0000   0.0000   0.2184
  12.500   1.2237   0.02534   0.01961   0.0229  0.0219  1.0000  -7.2892   0.0000   0.0000   0.0000   0.2167
  12.750   1.2347   0.02627   0.02064   0.0247  0.0214  1.0000  -7.4678   0.0000   0.0000   0.0000   0.2149
  13.000   1.2444   0.02733   0.02180   0.0265  0.0210  1.0000  -7.6402   0.0000   0.0000   0.0000   0.2132
  13.250   1.2535   0.02847   0.02304   0.0281  0.0205  1.0000  -7.8123   0.0000   0.0000   0.0000   0.2117
  13.500   1.2621   0.02971   0.02436   0.0294  0.0201  1.0000  -7.9850   0.0000   0.0000   0.0000   0.2104
  13.750   1.2699   0.03109   0.02580   0.0305  0.0196  1.0000  -8.1547   0.0000   0.0000   0.0000   0.2092
  14.000   1.2756   0.03274   0.02752   0.0314  0.0193  1.0000  -8.3113   0.0000   0.0000   0.0000   0.2081
  14.250   1.2770   0.03492   0.02978   0.0321  0.0189  1.0000  -8.4330   0.0000   0.0000   0.0000   0.2071
  14.500   1.2707   0.03808   0.03304   0.0326  0.0185  1.0000  -8.4859   0.0000   0.0000   0.0000   0.2061
  14.750   1.2718   0.04067   0.03578   0.0324  0.0183  1.0000  -8.5929   0.0000   0.0000   0.0000   0.2057
  15.000   1.2733   0.04340   0.03864   0.0319  0.0182  1.0000  -8.7019   0.0000   0.0000   0.0000   0.2057
  15.250   1.2726   0.04653   0.04191   0.0309  0.0180  1.0000  -8.7919   0.0000   0.0000   0.0000   0.2059
  15.500   1.2700   0.05007   0.04559   0.0296  0.0178  1.0000  -8.8631   0.0000   0.0000   0.0000   0.2063
  15.750   1.2653   0.05402   0.04968   0.0279  0.0176  1.0000  -8.9158   0.0000   0.0000   0.0000   0.2070
  16.000   1.2585   0.05841   0.05421   0.0259  0.0174  1.0000  -8.9465   0.0000   0.0000   0.0000   0.2079
  16.250   1.2496   0.06324   0.05918   0.0235  0.0173  1.0000  -8.9601   0.0000   0.0000   0.0000   0.2091
  16.500   1.2386   0.06846   0.06455   0.0208  0.0172  1.0000  -8.9563   0.0000   0.0000   0.0000   0.2105
  16.750   1.2258   0.07414   0.07036   0.0179  0.0171  1.0000  -8.9303   0.0000   0.0000   0.0000   0.2121
  17.000   1.2114   0.08025   0.07661   0.0146  0.0170  1.0000  -8.8818   0.0000   0.0000   0.0000   0.2141
  17.250   1.1952   0.08683   0.08332   0.0111  0.0169  1.0000  -8.8080   0.0000   0.0000   0.0000   0.2163
  17.500   1.1775   0.09387   0.09050   0.0072  0.0168  1.0000  -8.7094   0.0000   0.0000   0.0000   0.2189
  17.750   1.1577   0.10144   0.09821   0.0031  0.0168  1.0000  -8.5788   0.0000   0.0000   0.0000   0.2218
  18.000   1.1357   0.10966   0.10657  -0.0015  0.0167  1.0000  -8.4107   0.0000   0.0000   0.0000   0.2253
  18.250   1.1108   0.11874   0.11581  -0.0066  0.0167  1.0000  -8.1903   0.0000   0.0000   0.0000   0.2295
  18.500   1.0795   0.12944   0.12668  -0.0126  0.0167  1.0000  -7.8707   0.0000   0.0000   0.0000   0.2349
  18.750   1.0249   0.14618   0.14368  -0.0224  0.0169  1.0000  -7.1950   0.0000   0.0000   0.0000   0.2449


