xflr5 v6.61

 Calculated polar for: QX0026 v32

 1 1 Reynolds number fixed          Mach number fixed         

 xtrf =   1.000 (top)        1.000 (bottom)
 Mach =   0.000     Re =     0.380 e 6     Ncrit =   5.000

  alpha     CL        CD       CDp       Cm    Top Xtr Bot Xtr   Cpmin    Chinge    XCp    
 ------- -------- --------- --------- -------- ------- ------- -------- --------- ---------
 -10.000  -0.5509   0.02349   0.01732  -0.1094  0.7480  0.0120  -7.5478   0.0000   0.0000   0.0000   0.0343
  -9.750  -0.5292   0.02263   0.01634  -0.1092  0.7455  0.0123  -7.2746   0.0000   0.0000   0.0000   0.0265
  -9.500  -0.5069   0.02180   0.01537  -0.1090  0.7434  0.0127  -7.0066   0.0000   0.0000   0.0000   0.0178
  -9.250  -0.4843   0.02097   0.01438  -0.1088  0.7415  0.0132  -6.7456   0.0000   0.0000   0.0000   0.0082
  -9.000  -0.4612   0.02014   0.01341  -0.1085  0.7390  0.0137  -6.4901   0.0000   0.0000   0.0000  -0.0027
  -8.750  -0.4374   0.01939   0.01251  -0.1083  0.7366  0.0143  -6.2482   0.0000   0.0000   0.0000  -0.0152
  -8.500  -0.4132   0.01878   0.01184  -0.1082  0.7343  0.0150  -5.9875   0.0000   0.0000   0.0000  -0.0297
  -8.250  -0.3880   0.01829   0.01127  -0.1081  0.7324  0.0158  -5.7283   0.0000   0.0000   0.0000  -0.0467
  -8.000  -0.3628   0.01775   0.01062  -0.1080  0.7303  0.0167  -5.4865   0.0000   0.0000   0.0000  -0.0661
  -7.750  -0.3377   0.01718   0.00993  -0.1079  0.7281  0.0175  -5.2557   0.0000   0.0000   0.0000  -0.0883
  -7.500  -0.3123   0.01666   0.00937  -0.1078  0.7260  0.0184  -5.0107   0.0000   0.0000   0.0000  -0.1146
  -7.250  -0.2864   0.01622   0.00886  -0.1077  0.7240  0.0193  -4.7702   0.0000   0.0000   0.0000  -0.1463
  -7.000  -0.2603   0.01580   0.00832  -0.1076  0.7222  0.0206  -4.5374   0.0000   0.0000   0.0000  -0.1846
  -6.750  -0.2342   0.01539   0.00786  -0.1075  0.7204  0.0218  -4.3000   0.0000   0.0000   0.0000  -0.2316
  -6.500  -0.2076   0.01504   0.00747  -0.1075  0.7181  0.0234  -4.0644   0.0000   0.0000   0.0000  -0.2920
  -6.250  -0.1810   0.01466   0.00703  -0.1074  0.7160  0.0249  -3.8403   0.0000   0.0000   0.0000  -0.3697
  -6.000  -0.1544   0.01431   0.00665  -0.1074  0.7140  0.0266  -3.6125   0.0000   0.0000   0.0000  -0.4748
  -5.750  -0.1274   0.01403   0.00628  -0.1074  0.7123  0.0287  -3.3918   0.0000   0.0000   0.0000  -0.6268
  -5.500  -0.1006   0.01370   0.00593  -0.1074  0.7106  0.0309  -3.1730   0.0000   0.0000   0.0000  -0.8582
  -5.250  -0.0734   0.01342   0.00560  -0.1074  0.7085  0.0334  -2.9614   0.0000   0.0000   0.0000  -1.2644
  -5.000  -0.0463   0.01314   0.00532  -0.1074  0.7061  0.0365  -2.7510   0.0000   0.0000   0.0000  -2.1467
  -4.750  -0.0191   0.01288   0.00504  -0.1074  0.7038  0.0401  -2.5460   0.0000   0.0000   0.0000  -5.5557
  -4.500   0.0083   0.01264   0.00476  -0.1074  0.7017  0.0443  -2.3459   0.0000   0.0000   0.0000  13.5767
  -4.250   0.0358   0.01241   0.00451  -0.1075  0.6999  0.0500  -2.1501   0.0000   0.0000   0.0000   3.3350
  -4.000   0.0632   0.01219   0.00431  -0.1075  0.6978  0.0578  -1.9758   0.0000   0.0000   0.0000   1.9937
  -3.750   0.0907   0.01197   0.00412  -0.1076  0.6955  0.0682  -1.8057   0.0000   0.0000   0.0000   1.4646
  -3.500   0.1181   0.01176   0.00394  -0.1076  0.6934  0.0829  -1.6396   0.0000   0.0000   0.0000   1.1811
  -3.250   0.1455   0.01154   0.00378  -0.1077  0.6914  0.1025  -1.4815   0.0000   0.0000   0.0000   1.0046
  -3.000   0.1731   0.01133   0.00362  -0.1078  0.6897  0.1267  -1.3441   0.0000   0.0000   0.0000   0.8837
  -2.750   0.2006   0.01114   0.00351  -0.1079  0.6878  0.1543  -1.2166   0.0000   0.0000   0.0000   0.7963
  -2.500   0.2280   0.01095   0.00342  -0.1079  0.6853  0.1847  -1.0924   0.0000   0.0000   0.0000   0.7302
  -2.250   0.2553   0.01075   0.00333  -0.1080  0.6827  0.2210  -0.9790   0.0000   0.0000   0.0000   0.6783
  -2.000   0.2826   0.01054   0.00324  -0.1081  0.6804  0.2644  -0.8710   0.0000   0.0000   0.0000   0.6364
  -1.750   0.3101   0.01037   0.00317  -0.1081  0.6785  0.3077  -0.7651   0.0000   0.0000   0.0000   0.6016
  -1.500   0.3373   0.01021   0.00315  -0.1082  0.6760  0.3522  -0.7736   0.0000   0.0000   0.0000   0.5727
  -1.250   0.3647   0.01009   0.00314  -0.1082  0.6734  0.3911  -0.7895   0.0000   0.0000   0.0000   0.5480
  -0.750   0.4196   0.00985   0.00309  -0.1082  0.6688  0.4692  -0.8216   0.0000   0.0000   0.0000   0.5080
  -0.500   0.4468   0.00973   0.00308  -0.1082  0.6663  0.5108  -0.8375   0.0000   0.0000   0.0000   0.4917
  -0.250   0.4736   0.00963   0.00311  -0.1081  0.6630  0.5508  -0.8542   0.0000   0.0000   0.0000   0.4772
   0.000   0.5005   0.00952   0.00312  -0.1079  0.6603  0.5946  -0.8719   0.0000   0.0000   0.0000   0.4642
   0.250   0.5273   0.00941   0.00313  -0.1077  0.6580  0.6416  -0.8895   0.0000   0.0000   0.0000   0.4525
   0.500   0.5538   0.00932   0.00317  -0.1074  0.6555  0.6868  -0.9070   0.0000   0.0000   0.0000   0.4418
   0.750   0.5795   0.00922   0.00323  -0.1070  0.6522  0.7370  -0.9241   0.0000   0.0000   0.0000   0.4321
   1.000   0.6050   0.00909   0.00327  -0.1064  0.6490  0.7911  -0.9417   0.0000   0.0000   0.0000   0.4229
   1.250   0.6314   0.00897   0.00327  -0.1059  0.6464  0.8468  -0.9614   0.0000   0.0000   0.0000   0.4145
   1.500   0.6681   0.00889   0.00335  -0.1077  0.6431  0.9136  -0.9866   0.0000   0.0000   0.0000   0.4076
   1.750   0.7236   0.00889   0.00338  -0.1138  0.6397  0.9779  -1.0222   0.0000   0.0000   0.0000   0.4034
   2.000   0.7607   0.00895   0.00339  -0.1160  0.6365  1.0001  -1.0482   0.0000   0.0000   0.0000   0.3983
   2.250   0.7865   0.00902   0.00344  -0.1157  0.6327  1.0001  -1.0698   0.0000   0.0000   0.0000   0.3926
   2.500   0.8123   0.00908   0.00350  -0.1154  0.6286  1.0001  -1.0915   0.0000   0.0000   0.0000   0.3873
   2.750   0.8387   0.00915   0.00353  -0.1151  0.6252  1.0001  -1.1137   0.0000   0.0000   0.0000   0.3822
   3.000   0.8645   0.00923   0.00362  -0.1148  0.6206  1.0001  -1.1373   0.0000   0.0000   0.0000   0.3775
   3.250   0.8905   0.00930   0.00367  -0.1146  0.6160  1.0001  -1.1620   0.0000   0.0000   0.0000   0.3730
   3.500   0.9165   0.00937   0.00375  -0.1143  0.6113  1.0001  -1.1914   0.0000   0.0000   0.0000   0.3687
   3.750   0.9424   0.00945   0.00383  -0.1140  0.6059  1.0001  -1.2246   0.0000   0.0000   0.0000   0.3647
   4.000   0.9682   0.00953   0.00390  -0.1137  0.6001  1.0001  -1.2599   0.0000   0.0000   0.0000   0.3608
   4.250   0.9937   0.00962   0.00398  -0.1133  0.5934  1.0001  -1.2955   0.0000   0.0000   0.0000   0.3571
   4.500   1.0189   0.00972   0.00408  -0.1129  0.5855  1.0001  -1.3310   0.0000   0.0000   0.0000   0.3536
   4.750   1.0440   0.00982   0.00419  -0.1125  0.5777  1.0001  -1.3666   0.0000   0.0000   0.0000   0.3502
   5.000   1.0690   0.00994   0.00431  -0.1120  0.5699  1.0001  -1.4024   0.0000   0.0000   0.0000   0.3470
   5.250   1.0937   0.01008   0.00444  -0.1116  0.5611  1.0001  -1.4396   0.0000   0.0000   0.0000   0.3439
   5.500   1.1182   0.01023   0.00459  -0.1110  0.5520  1.0001  -1.4787   0.0000   0.0000   0.0000   0.3408
   5.750   1.1424   0.01039   0.00475  -0.1105  0.5431  1.0001  -1.5179   0.0000   0.0000   0.0000   0.3379
   6.000   1.1664   0.01057   0.00494  -0.1099  0.5339  1.0001  -1.5571   0.0000   0.0000   0.0000   0.3351
   6.250   1.1897   0.01078   0.00514  -0.1092  0.5235  1.0001  -1.5967   0.0000   0.0000   0.0000   0.3323
   6.500   1.2123   0.01100   0.00536  -0.1084  0.5126  1.0001  -1.6727   0.0000   0.0000   0.0000   0.3296
   6.750   1.2342   0.01126   0.00561  -0.1075  0.5006  1.0001  -1.7885   0.0000   0.0000   0.0000   0.3269
   7.000   1.2541   0.01159   0.00590  -0.1062  0.4850  1.0001  -1.9021   0.0000   0.0000   0.0000   0.3242
   7.250   1.2723   0.01197   0.00623  -0.1047  0.4674  1.0001  -2.0164   0.0000   0.0000   0.0000   0.3214
   7.500   1.2890   0.01241   0.00662  -0.1029  0.4496  1.0001  -2.1340   0.0000   0.0000   0.0000   0.3186
   8.000   1.3135   0.01353   0.00758  -0.0978  0.4084  1.0001  -2.3517   0.0000   0.0000   0.0000   0.3125
   8.250   1.3195   0.01427   0.00823  -0.0944  0.3844  1.0001  -2.4460   0.0000   0.0000   0.0000   0.3092
   8.500   1.3230   0.01524   0.00907  -0.0908  0.3571  1.0001  -2.5337   0.0000   0.0000   0.0000   0.3059
   8.750   1.3244   0.01647   0.01017  -0.0874  0.3285  1.0001  -2.6159   0.0000   0.0000   0.0000   0.3028
   9.000   1.3254   0.01793   0.01149  -0.0844  0.2994  1.0001  -2.6964   0.0000   0.0000   0.0000   0.3001
   9.250   1.3274   0.01952   0.01294  -0.0819  0.2722  1.0001  -2.7801   0.0000   0.0000   0.0000   0.2976
   9.500   1.3302   0.02116   0.01447  -0.0796  0.2472  1.0001  -2.8664   0.0000   0.0000   0.0000   0.2954
   9.750   1.3338   0.02281   0.01601  -0.0776  0.2245  1.0001  -2.9554   0.0000   0.0000   0.0000   0.2932
  10.000   1.3394   0.02435   0.01747  -0.0758  0.2058  1.0001  -3.0514   0.0000   0.0000   0.0000   0.2912
  10.250   1.3453   0.02588   0.01894  -0.0741  0.1892  1.0001  -3.1490   0.0000   0.0000   0.0000   0.2892
  10.500   1.3518   0.02738   0.02040  -0.0724  0.1738  1.0001  -3.2490   0.0000   0.0000   0.0000   0.2873
  10.750   1.3577   0.02894   0.02191  -0.0708  0.1581  1.0001  -3.3482   0.0000   0.0000   0.0000   0.2854
  11.000   1.3627   0.03059   0.02350  -0.0691  0.1415  1.0001  -3.4445   0.0000   0.0000   0.0000   0.2835
  11.250   1.3658   0.03240   0.02523  -0.0674  0.1225  1.0001  -3.5355   0.0000   0.0000   0.0000   0.2816
  11.500   1.3671   0.03437   0.02711  -0.0656  0.1028  1.0001  -3.6204   0.0000   0.0000   0.0000   0.2798
  11.750   1.3681   0.03641   0.02906  -0.0638  0.0862  1.0001  -3.7043   0.0000   0.0000   0.0000   0.2780
  12.000   1.3703   0.03841   0.03101  -0.0623  0.0736  1.0001  -3.7942   0.0000   0.0000   0.0000   0.2763
  12.250   1.3741   0.04033   0.03291  -0.0609  0.0640  1.0001  -3.8960   0.0000   0.0000   0.0000   0.2747
  12.500   1.3787   0.04224   0.03482  -0.0597  0.0563  1.0001  -4.0011   0.0000   0.0000   0.0000   0.2732
  12.750   1.3837   0.04415   0.03674  -0.0585  0.0497  1.0001  -4.1082   0.0000   0.0000   0.0000   0.2717
  13.000   1.3888   0.04610   0.03870  -0.0575  0.0436  1.0001  -4.2160   0.0000   0.0000   0.0000   0.2703
  13.250   1.3938   0.04810   0.04072  -0.0565  0.0381  1.0001  -4.3239   0.0000   0.0000   0.0000   0.2689
  13.500   1.3985   0.05017   0.04281  -0.0556  0.0336  1.0001  -4.4308   0.0000   0.0000   0.0000   0.2676
  13.750   1.4029   0.05231   0.04498  -0.0547  0.0301  1.0001  -4.5365   0.0000   0.0000   0.0000   0.2663
  14.000   1.4072   0.05450   0.04721  -0.0539  0.0275  1.0001  -4.6419   0.0000   0.0000   0.0000   0.2651
  14.250   1.4113   0.05674   0.04951  -0.0531  0.0256  1.0001  -4.7463   0.0000   0.0000   0.0000   0.2640
  14.500   1.4146   0.05911   0.05193  -0.0524  0.0240  1.0001  -4.8480   0.0000   0.0000   0.0000   0.2629
  14.750   1.4175   0.06156   0.05445  -0.0518  0.0228  1.0001  -4.9482   0.0000   0.0000   0.0000   0.2618
  15.000   1.4210   0.06400   0.05697  -0.0512  0.0218  1.0001  -5.0593   0.0000   0.0000   0.0000   0.2608
  15.250   1.4232   0.06660   0.05965  -0.0507  0.0209  1.0001  -5.1655   0.0000   0.0000   0.0000   0.2598
  15.500   1.4239   0.06943   0.06255  -0.0503  0.0202  1.0001  -5.2651   0.0000   0.0000   0.0000   0.2590
  15.750   1.4250   0.07226   0.06546  -0.0500  0.0196  1.0001  -5.3653   0.0000   0.0000   0.0000   0.2582
  16.000   1.4266   0.07508   0.06837  -0.0497  0.0190  1.0001  -5.4680   0.0000   0.0000   0.0000   0.2574
  16.250   1.4273   0.07802   0.07141  -0.0495  0.0185  1.0001  -5.5675   0.0000   0.0000   0.0000   0.2567
  16.500   1.4273   0.08110   0.07458  -0.0495  0.0180  1.0001  -5.6642   0.0000   0.0000   0.0000   0.2560
  16.750   1.4262   0.08436   0.07793  -0.0495  0.0175  1.0001  -5.7634   0.0000   0.0000   0.0000   0.2555
  17.000   1.4238   0.08786   0.08150  -0.0496  0.0171  1.0001  -5.8542   0.0000   0.0000   0.0000   0.2551
  17.250   1.4209   0.09145   0.08517  -0.0498  0.0168  1.0001  -5.9405   0.0000   0.0000   0.0000   0.2547
  17.500   1.4195   0.09487   0.08871  -0.0501  0.0165  1.0001  -6.0338   0.0000   0.0000   0.0000   0.2544
  17.750   1.4177   0.09841   0.09234  -0.0505  0.0163  1.0001  -6.1238   0.0000   0.0000   0.0000   0.2541
  18.000   1.4155   0.10203   0.09607  -0.0511  0.0160  1.0001  -6.2108   0.0000   0.0000   0.0000   0.2540
  18.250   1.4129   0.10573   0.09988  -0.0517  0.0157  1.0001  -6.2949   0.0000   0.0000   0.0000   0.2539
  18.500   1.4102   0.10949   0.10373  -0.0525  0.0155  1.0001  -6.3769   0.0000   0.0000   0.0000   0.2539
  18.750   1.4074   0.11329   0.10763  -0.0533  0.0153  1.0001  -6.4738   0.0000   0.0000   0.0000   0.2539
  19.000   1.4046   0.11713   0.11156  -0.0543  0.0151  1.0001  -6.5779   0.0000   0.0000   0.0000   0.2541
  19.250   1.4018   0.12100   0.11552  -0.0554  0.0148  1.0001  -6.6812   0.0000   0.0000   0.0000   0.2544
  19.500   1.3989   0.12491   0.11951  -0.0567  0.0146  1.0001  -6.7824   0.0000   0.0000   0.0000   0.2547
  19.750   1.3958   0.12887   0.12355  -0.0580  0.0144  1.0001  -6.8797   0.0000   0.0000   0.0000   0.2551
  20.000   1.3924   0.13290   0.12765  -0.0595  0.0142  1.0001  -6.9723   0.0000   0.0000   0.0000   0.2557


