xflr5 v6.61

 Calculated polar for: QX0026 v32

 1 1 Reynolds number fixed          Mach number fixed         

 xtrf =   1.000 (top)        1.000 (bottom)
 Mach =   0.000     Re =     0.120 e 6     Ncrit =   5.000

  alpha     CL        CD       CDp       Cm    Top Xtr Bot Xtr   Cpmin    Chinge    XCp    
 ------- -------- --------- --------- -------- ------- ------- -------- --------- ---------
 -10.000  -0.2345   0.08804   0.08289  -0.0812  0.8258  0.0271  -2.7379   0.0000   0.0000   0.0000  -0.1278
  -9.750  -0.2413   0.08209   0.07696  -0.0846  0.8229  0.0270  -2.9106   0.0000   0.0000   0.0000  -0.1309
  -9.500  -0.2538   0.07456   0.06949  -0.0896  0.8192  0.0269  -3.1680   0.0000   0.0000   0.0000  -0.1315
  -9.250  -0.3623   0.04623   0.04044  -0.1151  0.8139  0.0249  -4.7117   0.0000   0.0000   0.0000  -0.0888
  -9.000  -0.3596   0.04313   0.03709  -0.1161  0.8097  0.0253  -4.6869   0.0000   0.0000   0.0000  -0.0935
  -8.750  -0.3518   0.04053   0.03421  -0.1165  0.8063  0.0258  -4.6195   0.0000   0.0000   0.0000  -0.1016
  -8.500  -0.3420   0.03796   0.03128  -0.1166  0.8034  0.0269  -4.5597   0.0000   0.0000   0.0000  -0.1113
  -8.250  -0.3337   0.03464   0.02732  -0.1164  0.7996  0.0283  -4.5905   0.0000   0.0000   0.0000  -0.1192
  -8.000  -0.3166   0.03288   0.02529  -0.1161  0.7965  0.0294  -4.4725   0.0000   0.0000   0.0000  -0.1376
  -7.750  -0.2969   0.03143   0.02360  -0.1158  0.7939  0.0306  -4.3332   0.0000   0.0000   0.0000  -0.1614
  -7.500  -0.2778   0.02966   0.02150  -0.1154  0.7904  0.0318  -4.2365   0.0000   0.0000   0.0000  -0.1873
  -7.250  -0.2569   0.02818   0.01969  -0.1149  0.7873  0.0336  -4.1138   0.0000   0.0000   0.0000  -0.2202
  -7.000  -0.2339   0.02734   0.01873  -0.1147  0.7848  0.0356  -3.9287   0.0000   0.0000   0.0000  -0.2644
  -6.750  -0.2110   0.02612   0.01721  -0.1142  0.7821  0.0379  -3.7951   0.0000   0.0000   0.0000  -0.3168
  -6.500  -0.1879   0.02529   0.01636  -0.1139  0.7789  0.0396  -3.6185   0.0000   0.0000   0.0000  -0.3837
  -6.250  -0.1638   0.02444   0.01526  -0.1135  0.7762  0.0427  -3.4601   0.0000   0.0000   0.0000  -0.4730
  -6.000  -0.1395   0.02377   0.01457  -0.1133  0.7740  0.0455  -3.2702   0.0000   0.0000   0.0000  -0.5957
  -5.750  -0.1158   0.02306   0.01376  -0.1128  0.7710  0.0485  -3.1078   0.0000   0.0000   0.0000  -0.7631
  -5.500  -0.0918   0.02252   0.01316  -0.1125  0.7681  0.0524  -2.9322   0.0000   0.0000   0.0000  -1.0216
  -5.250  -0.0673   0.02198   0.01258  -0.1122  0.7656  0.0569  -2.7546   0.0000   0.0000   0.0000  -1.4766
  -5.000  -0.0423   0.02144   0.01197  -0.1119  0.7635  0.0621  -2.5802   0.0000   0.0000   0.0000  -2.4888
  -4.750  -0.0186   0.02104   0.01156  -0.1115  0.7602  0.0688  -2.4111   0.0000   0.0000   0.0000  -5.9541
  -4.500   0.0057   0.02065   0.01113  -0.1111  0.7571  0.0772  -2.2467   0.0000   0.0000   0.0000  20.2152
  -4.250   0.0308   0.02023   0.01072  -0.1108  0.7546  0.0883  -2.0923   0.0000   0.0000   0.0000   3.9485
  -4.000   0.0568   0.01981   0.01030  -0.1106  0.7526  0.1043  -1.9373   0.0000   0.0000   0.0000   2.2534
  -3.750   0.0800   0.01956   0.01014  -0.1102  0.7488  0.1259  -1.7921   0.0000   0.0000   0.0000   1.6640
  -3.500   0.1048   0.01927   0.00993  -0.1100  0.7459  0.1570  -1.6427   0.0000   0.0000   0.0000   1.3250
  -3.250   0.1304   0.01895   0.00972  -0.1098  0.7436  0.1969  -1.4971   0.0000   0.0000   0.0000   1.1107
  -3.000   0.1560   0.01866   0.00957  -0.1096  0.7414  0.2435  -1.3627   0.0000   0.0000   0.0000   0.9674
  -2.750   0.1789   0.01857   0.00966  -0.1091  0.7376  0.2933  -1.2485   0.0000   0.0000   0.0000   0.8716
  -2.500   0.2038   0.01840   0.00964  -0.1088  0.7349  0.3474  -1.1312   0.0000   0.0000   0.0000   0.7930
  -2.250   0.2298   0.01823   0.00957  -0.1085  0.7328  0.4003  -1.0183   0.0000   0.0000   0.0000   0.7295
  -2.000   0.2543   0.01814   0.00962  -0.1080  0.7299  0.4499  -0.9162   0.0000   0.0000   0.0000   0.6806
  -1.750   0.2774   0.01813   0.00976  -0.1073  0.7261  0.4990  -0.8192   0.0000   0.0000   0.0000   0.6415
  -1.500   0.3028   0.01801   0.00976  -0.1068  0.7234  0.5511  -0.7334   0.0000   0.0000   0.0000   0.6062
  -1.250   0.3293   0.01784   0.00970  -0.1063  0.7213  0.6052  -0.7490   0.0000   0.0000   0.0000   0.5754
  -1.000   0.3510   0.01795   0.00997  -0.1053  0.7171  0.6575  -0.7604   0.0000   0.0000   0.0000   0.5516
  -0.750   0.3753   0.01794   0.01008  -0.1044  0.7140  0.7136  -0.7759   0.0000   0.0000   0.0000   0.5293
  -0.500   0.4016   0.01783   0.01007  -0.1037  0.7117  0.7735  -0.7930   0.0000   0.0000   0.0000   0.5087
  -0.250   0.4303   0.01777   0.01011  -0.1035  0.7093  0.8392  -0.8112   0.0000   0.0000   0.0000   0.4903
   0.000   0.4729   0.01791   0.01034  -0.1065  0.7052  0.9182  -0.8355   0.0000   0.0000   0.0000   0.4746
   0.250   0.5271   0.01791   0.01025  -0.1121  0.7026  0.9981  -0.8670   0.0000   0.0000   0.0000   0.4615
   0.500   0.5545   0.01794   0.01015  -0.1121  0.7003  1.0001  -0.8852   0.0000   0.0000   0.0000   0.4506
   0.750   0.5736   0.01831   0.01047  -0.1110  0.6954  1.0001  -0.8989   0.0000   0.0000   0.0000   0.4415
   1.000   0.5977   0.01848   0.01056  -0.1105  0.6921  1.0001  -0.9164   0.0000   0.0000   0.0000   0.4325
   1.250   0.6249   0.01853   0.01051  -0.1104  0.6898  1.0001  -0.9362   0.0000   0.0000   0.0000   0.4239
   1.500   0.6447   0.01893   0.01089  -0.1093  0.6849  1.0001  -0.9503   0.0000   0.0000   0.0000   0.4165
   1.750   0.6694   0.01909   0.01099  -0.1089  0.6813  1.0001  -0.9685   0.0000   0.0000   0.0000   0.4092
   2.000   0.6981   0.01907   0.01089  -0.1090  0.6789  1.0001  -0.9918   0.0000   0.0000   0.0000   0.4023
   2.250   0.7166   0.01952   0.01135  -0.1078  0.6732  1.0001  -1.0075   0.0000   0.0000   0.0000   0.3962
   2.500   0.7429   0.01962   0.01140  -0.1075  0.6699  1.0001  -1.0290   0.0000   0.0000   0.0000   0.3903
   3.000   0.7886   0.02014   0.01191  -0.1062  0.6612  1.0001  -1.0701   0.0000   0.0000   0.0000   0.3795
   3.250   0.8170   0.02011   0.01186  -0.1062  0.6582  1.0001  -1.0962   0.0000   0.0000   0.0000   0.3746
   3.500   0.8369   0.02048   0.01225  -0.1051  0.6525  1.0001  -1.1186   0.0000   0.0000   0.0000   0.3699
   3.750   0.8628   0.02056   0.01232  -0.1048  0.6486  1.0001  -1.1494   0.0000   0.0000   0.0000   0.3654
   4.000   0.8934   0.02043   0.01218  -0.1051  0.6462  1.0001  -1.1859   0.0000   0.0000   0.0000   0.3613
   4.250   0.9091   0.02097   0.01278  -0.1035  0.6390  1.0001  -1.2111   0.0000   0.0000   0.0000   0.3571
   4.500   0.9397   0.02079   0.01259  -0.1037  0.6360  1.0001  -1.2505   0.0000   0.0000   0.0000   0.3534
   4.750   0.9560   0.02127   0.01315  -0.1021  0.6287  1.0001  -1.2774   0.0000   0.0000   0.0000   0.3495
   5.000   0.9862   0.02108   0.01296  -0.1023  0.6253  1.0001  -1.3172   0.0000   0.0000   0.0000   0.3461
   5.250   1.0023   0.02153   0.01348  -0.1007  0.6177  1.0001  -1.3443   0.0000   0.0000   0.0000   0.3424
   5.500   1.0342   0.02121   0.01317  -0.1010  0.6140  1.0001  -1.3862   0.0000   0.0000   0.0000   0.3394
   5.750   1.0498   0.02161   0.01365  -0.0993  0.6056  1.0001  -1.4164   0.0000   0.0000   0.0000   0.3359
   6.000   1.0700   0.02179   0.01388  -0.0981  0.5983  1.0001  -1.4513   0.0000   0.0000   0.0000   0.3326
   6.250   1.1001   0.02147   0.01360  -0.0981  0.5927  1.0001  -1.4961   0.0000   0.0000   0.0000   0.3298
   6.500   1.1155   0.02185   0.01405  -0.0963  0.5837  1.0001  -1.5267   0.0000   0.0000   0.0000   0.3266
   6.750   1.1326   0.02216   0.01442  -0.0946  0.5751  1.0001  -1.5601   0.0000   0.0000   0.0000   0.3235
   7.000   1.1531   0.02231   0.01464  -0.0935  0.5672  1.0001  -1.6289   0.0000   0.0000   0.0000   0.3206
   7.250   1.1795   0.02218   0.01455  -0.0930  0.5599  1.0001  -1.7542   0.0000   0.0000   0.0000   0.3181
   7.500   1.1935   0.02254   0.01499  -0.0909  0.5502  1.0001  -1.8519   0.0000   0.0000   0.0000   0.3150
   7.750   1.2083   0.02293   0.01544  -0.0890  0.5402  1.0001  -1.9530   0.0000   0.0000   0.0000   0.3121
   8.000   1.2240   0.02333   0.01591  -0.0873  0.5300  1.0001  -2.0578   0.0000   0.0000   0.0000   0.3094
   8.250   1.2412   0.02368   0.01633  -0.0859  0.5195  1.0001  -2.1698   0.0000   0.0000   0.0000   0.3068
   8.500   1.2596   0.02400   0.01670  -0.0845  0.5086  1.0001  -2.2928   0.0000   0.0000   0.0000   0.3044
   8.750   1.2773   0.02436   0.01710  -0.0832  0.4967  1.0001  -2.4160   0.0000   0.0000   0.0000   0.3020
   9.250   1.3068   0.02546   0.01828  -0.0799  0.4687  1.0001  -2.6508   0.0000   0.0000   0.0000   0.2972
   9.500   1.3217   0.02597   0.01876  -0.0783  0.4514  1.0001  -2.7717   0.0000   0.0000   0.0000   0.2949
   9.750   1.3301   0.02692   0.01967  -0.0762  0.4305  1.0001  -2.8745   0.0000   0.0000   0.0000   0.2924
  10.000   1.3373   0.02798   0.02066  -0.0740  0.4080  1.0001  -2.9751   0.0000   0.0000   0.0000   0.2900
  10.250   1.3429   0.02924   0.02186  -0.0718  0.3859  1.0001  -3.0707   0.0000   0.0000   0.0000   0.2877
  10.500   1.3486   0.03056   0.02313  -0.0698  0.3657  1.0001  -3.1671   0.0000   0.0000   0.0000   0.2855
  11.000   1.3545   0.03374   0.02618  -0.0656  0.3231  1.0001  -3.3439   0.0000   0.0000   0.0000   0.2813
  11.250   1.3551   0.03557   0.02794  -0.0636  0.3011  1.0001  -3.4250   0.0000   0.0000   0.0000   0.2793
  11.500   1.3552   0.03752   0.02983  -0.0616  0.2798  1.0001  -3.5041   0.0000   0.0000   0.0000   0.2773
  11.750   1.3545   0.03958   0.03181  -0.0596  0.2594  1.0001  -3.5806   0.0000   0.0000   0.0000   0.2754
  12.000   1.3537   0.04171   0.03389  -0.0579  0.2398  1.0001  -3.6565   0.0000   0.0000   0.0000   0.2736
  12.250   1.3523   0.04398   0.03609  -0.0562  0.2208  1.0001  -3.7326   0.0000   0.0000   0.0000   0.2719
  12.500   1.3506   0.04636   0.03842  -0.0546  0.2014  1.0001  -3.8107   0.0000   0.0000   0.0000   0.2703
  12.750   1.3481   0.04891   0.04090  -0.0532  0.1825  1.0001  -3.8855   0.0000   0.0000   0.0000   0.2688
  13.000   1.3462   0.05152   0.04348  -0.0519  0.1624  1.0001  -3.9612   0.0000   0.0000   0.0000   0.2674
  13.250   1.3432   0.05432   0.04622  -0.0508  0.1424  1.0001  -4.0322   0.0000   0.0000   0.0000   0.2661
  13.500   1.3396   0.05727   0.04909  -0.0497  0.1224  1.0001  -4.0998   0.0000   0.0000   0.0000   0.2649
  13.750   1.3352   0.06040   0.05215  -0.0488  0.1047  1.0001  -4.1626   0.0000   0.0000   0.0000   0.2638
  14.000   1.3307   0.06362   0.05531  -0.0479  0.0909  1.0001  -4.2238   0.0000   0.0000   0.0000   0.2628
  14.250   1.3263   0.06691   0.05858  -0.0472  0.0801  1.0001  -4.2836   0.0000   0.0000   0.0000   0.2619
  14.500   1.3227   0.07021   0.06189  -0.0467  0.0717  1.0001  -4.3446   0.0000   0.0000   0.0000   0.2610
  14.750   1.3189   0.07360   0.06532  -0.0463  0.0649  1.0001  -4.4035   0.0000   0.0000   0.0000   0.2603
  15.000   1.3152   0.07706   0.06883  -0.0460  0.0594  1.0001  -4.4608   0.0000   0.0000   0.0000   0.2596
  15.250   1.3116   0.08059   0.07243  -0.0458  0.0550  1.0001  -4.5167   0.0000   0.0000   0.0000   0.2591
  15.500   1.3076   0.08425   0.07617  -0.0458  0.0515  1.0001  -4.5750   0.0000   0.0000   0.0000   0.2586
  15.750   1.3036   0.08795   0.07995  -0.0459  0.0485  1.0001  -4.6338   0.0000   0.0000   0.0000   0.2583
  16.000   1.3002   0.09164   0.08374  -0.0461  0.0459  1.0001  -4.6918   0.0000   0.0000   0.0000   0.2580
  16.250   1.2965   0.09543   0.08762  -0.0464  0.0438  1.0001  -4.7487   0.0000   0.0000   0.0000   0.2578
  16.500   1.2936   0.09912   0.09142  -0.0468  0.0418  1.0001  -4.8066   0.0000   0.0000   0.0000   0.2577
  16.750   1.2913   0.10277   0.09517  -0.0473  0.0400  1.0001  -4.8667   0.0000   0.0000   0.0000   0.2575
  17.000   1.2882   0.10657   0.09900  -0.0480  0.0387  1.0001  -4.9254   0.0000   0.0000   0.0000   0.2576
  17.250   1.2881   0.10991   0.10249  -0.0485  0.0370  1.0001  -4.9936   0.0000   0.0000   0.0000   0.2575
  17.500   1.2874   0.11339   0.10604  -0.0492  0.0356  1.0001  -5.0689   0.0000   0.0000   0.0000   0.2575
  17.750   1.2865   0.11687   0.10957  -0.0501  0.0345  1.0001  -5.1457   0.0000   0.0000   0.0000   0.2576
  18.000   1.2884   0.11994   0.11276  -0.0507  0.0333  1.0001  -5.2282   0.0000   0.0000   0.0000   0.2575
  18.250   1.2901   0.12301   0.11594  -0.0515  0.0322  1.0001  -5.3128   0.0000   0.0000   0.0000   0.2574
  18.500   1.2925   0.12596   0.11895  -0.0523  0.0313  1.0001  -5.4025   0.0000   0.0000   0.0000   0.2573
  18.750   1.2959   0.12866   0.12167  -0.0530  0.0306  1.0001  -5.5016   0.0000   0.0000   0.0000   0.2572
  19.000   1.3003   0.13123   0.12436  -0.0536  0.0299  1.0001  -5.5986   0.0000   0.0000   0.0000   0.2569
  19.250   1.3044   0.13388   0.12715  -0.0543  0.0292  1.0001  -5.7000   0.0000   0.0000   0.0000   0.2567
  19.500   1.3081   0.13662   0.13000  -0.0551  0.0285  1.0001  -5.8157   0.0000   0.0000   0.0000   0.2566
  19.750   1.3115   0.13945   0.13292  -0.0562  0.0278  1.0001  -5.9374   0.0000   0.0000   0.0000   0.2567
  20.000   1.3155   0.14210   0.13562  -0.0572  0.0272  1.0001  -6.0696   0.0000   0.0000   0.0000   0.2567


