xflr5 v6.61

 Calculated polar for: QX0026 v32

 1 1 Reynolds number fixed          Mach number fixed         

 xtrf =   1.000 (top)        1.000 (bottom)
 Mach =   0.000     Re =     0.820 e 6     Ncrit =   5.000

  alpha     CL        CD       CDp       Cm    Top Xtr Bot Xtr   Cpmin    Chinge    XCp    
 ------- -------- --------- --------- -------- ------- ------- -------- --------- ---------
 -10.000  -0.5856   0.01669   0.01069  -0.1064  0.7177  0.0088  -8.1872   0.0000   0.0000   0.0000   0.0518
  -9.750  -0.5613   0.01605   0.00999  -0.1062  0.7154  0.0092  -7.8778   0.0000   0.0000   0.0000   0.0442
  -9.500  -0.5362   0.01555   0.00942  -0.1061  0.7132  0.0095  -7.5596   0.0000   0.0000   0.0000   0.0356
  -9.250  -0.5106   0.01511   0.00892  -0.1060  0.7112  0.0099  -7.2414   0.0000   0.0000   0.0000   0.0258
  -9.000  -0.4846   0.01471   0.00845  -0.1060  0.7094  0.0103  -6.9271   0.0000   0.0000   0.0000   0.0147
  -8.750  -0.4584   0.01431   0.00799  -0.1059  0.7074  0.0108  -6.6353   0.0000   0.0000   0.0000   0.0021
  -8.500  -0.4319   0.01394   0.00756  -0.1059  0.7055  0.0112  -6.3544   0.0000   0.0000   0.0000  -0.0122
  -8.250  -0.4056   0.01354   0.00711  -0.1059  0.7036  0.0118  -6.0797   0.0000   0.0000   0.0000  -0.0282
  -8.000  -0.3791   0.01319   0.00671  -0.1058  0.7017  0.0124  -5.8027   0.0000   0.0000   0.0000  -0.0468
  -7.750  -0.3523   0.01289   0.00636  -0.1058  0.7000  0.0131  -5.5287   0.0000   0.0000   0.0000  -0.0684
  -7.500  -0.3252   0.01259   0.00602  -0.1058  0.6981  0.0138  -5.2597   0.0000   0.0000   0.0000  -0.0941
  -7.250  -0.2979   0.01230   0.00569  -0.1059  0.6962  0.0145  -4.9957   0.0000   0.0000   0.0000  -0.1247
  -7.000  -0.2708   0.01201   0.00538  -0.1059  0.6943  0.0155  -4.7331   0.0000   0.0000   0.0000  -0.1613
  -6.750  -0.2433   0.01177   0.00510  -0.1060  0.6925  0.0166  -4.4745   0.0000   0.0000   0.0000  -0.2068
  -6.500  -0.2158   0.01155   0.00483  -0.1060  0.6909  0.0176  -4.2231   0.0000   0.0000   0.0000  -0.2640
  -6.250  -0.1885   0.01130   0.00456  -0.1060  0.6893  0.0188  -3.9763   0.0000   0.0000   0.0000  -0.3375
  -6.000  -0.1607   0.01109   0.00432  -0.1061  0.6874  0.0201  -3.7338   0.0000   0.0000   0.0000  -0.4380
  -5.750  -0.1329   0.01087   0.00408  -0.1062  0.6852  0.0216  -3.4969   0.0000   0.0000   0.0000  -0.5806
  -5.500  -0.1051   0.01066   0.00387  -0.1063  0.6830  0.0234  -3.2642   0.0000   0.0000   0.0000  -0.7988
  -5.250  -0.0773   0.01048   0.00365  -0.1064  0.6809  0.0252  -3.0382   0.0000   0.0000   0.0000  -1.1748
  -5.000  -0.0495   0.01030   0.00345  -0.1064  0.6791  0.0276  -2.8172   0.0000   0.0000   0.0000  -1.9724
  -4.750  -0.0215   0.01013   0.00326  -0.1065  0.6775  0.0300  -2.6020   0.0000   0.0000   0.0000  -4.8598
  -4.500   0.0067   0.00996   0.00309  -0.1067  0.6755  0.0328  -2.3918   0.0000   0.0000   0.0000  16.6766
  -4.250   0.0348   0.00979   0.00293  -0.1068  0.6734  0.0366  -2.1875   0.0000   0.0000   0.0000   3.4041
  -4.000   0.0629   0.00963   0.00278  -0.1069  0.6714  0.0414  -1.9964   0.0000   0.0000   0.0000   1.9933
  -3.750   0.0909   0.00948   0.00263  -0.1070  0.6696  0.0470  -1.8205   0.0000   0.0000   0.0000   1.4538
  -3.500   0.1190   0.00934   0.00250  -0.1071  0.6678  0.0547  -1.6497   0.0000   0.0000   0.0000   1.1695
  -3.250   0.1471   0.00919   0.00238  -0.1073  0.6657  0.0656  -1.4863   0.0000   0.0000   0.0000   0.9931
  -3.000   0.1752   0.00901   0.00226  -0.1074  0.6632  0.0799  -1.3485   0.0000   0.0000   0.0000   0.8737
  -2.750   0.2032   0.00885   0.00216  -0.1076  0.6608  0.0981  -1.2185   0.0000   0.0000   0.0000   0.7874
  -2.500   0.2311   0.00869   0.00206  -0.1077  0.6585  0.1207  -1.0921   0.0000   0.0000   0.0000   0.7222
  -2.250   0.2591   0.00855   0.00198  -0.1078  0.6566  0.1434  -0.9761   0.0000   0.0000   0.0000   0.6709
  -2.000   0.2872   0.00841   0.00191  -0.1080  0.6542  0.1678  -0.8659   0.0000   0.0000   0.0000   0.6295
  -1.750   0.3153   0.00826   0.00185  -0.1081  0.6517  0.1961  -0.7646   0.0000   0.0000   0.0000   0.5956
  -1.500   0.3430   0.00809   0.00180  -0.1082  0.6492  0.2348  -0.7805   0.0000   0.0000   0.0000   0.5673
  -1.250   0.3708   0.00796   0.00175  -0.1084  0.6469  0.2719  -0.7968   0.0000   0.0000   0.0000   0.5433
  -1.000   0.3986   0.00781   0.00173  -0.1085  0.6444  0.3137  -0.8131   0.0000   0.0000   0.0000   0.5226
  -0.750   0.4267   0.00769   0.00171  -0.1086  0.6416  0.3483  -0.8295   0.0000   0.0000   0.0000   0.5045
  -0.500   0.4547   0.00760   0.00170  -0.1088  0.6389  0.3828  -0.8459   0.0000   0.0000   0.0000   0.4886
  -0.250   0.4826   0.00752   0.00169  -0.1089  0.6364  0.4148  -0.8626   0.0000   0.0000   0.0000   0.4745
   0.000   0.5106   0.00744   0.00170  -0.1090  0.6336  0.4478  -0.8809   0.0000   0.0000   0.0000   0.4619
   0.250   0.5387   0.00736   0.00171  -0.1091  0.6304  0.4792  -0.8992   0.0000   0.0000   0.0000   0.4507
   0.500   0.5666   0.00730   0.00172  -0.1092  0.6273  0.5117  -0.9175   0.0000   0.0000   0.0000   0.4405
   0.750   0.5940   0.00722   0.00174  -0.1092  0.6245  0.5520  -0.9356   0.0000   0.0000   0.0000   0.4313
   1.000   0.6218   0.00714   0.00178  -0.1093  0.6210  0.5912  -0.9539   0.0000   0.0000   0.0000   0.4228
   1.250   0.6493   0.00707   0.00182  -0.1093  0.6174  0.6322  -0.9741   0.0000   0.0000   0.0000   0.4151
   1.500   0.6761   0.00700   0.00186  -0.1092  0.6140  0.6792  -0.9940   0.0000   0.0000   0.0000   0.4078
   1.750   0.7029   0.00690   0.00192  -0.1090  0.6100  0.7286  -1.0139   0.0000   0.0000   0.0000   0.4011
   2.000   0.7292   0.00683   0.00197  -0.1087  0.6058  0.7742  -1.0336   0.0000   0.0000   0.0000   0.3948
   2.250   0.7552   0.00677   0.00203  -0.1083  0.6019  0.8192  -1.0547   0.0000   0.0000   0.0000   0.3889
   2.500   0.7810   0.00667   0.00209  -0.1079  0.5972  0.8732  -1.0765   0.0000   0.0000   0.0000   0.3833
   2.750   0.8247   0.00662   0.00218  -0.1114  0.5920  0.9514  -1.1088   0.0000   0.0000   0.0000   0.3799
   3.000   0.8745   0.00668   0.00224  -0.1164  0.5852  0.9952  -1.1463   0.0000   0.0000   0.0000   0.3777
   3.250   0.9038   0.00678   0.00231  -0.1169  0.5779  1.0001  -1.1731   0.0000   0.0000   0.0000   0.3736
   3.500   0.9292   0.00688   0.00238  -0.1165  0.5695  1.0001  -1.2023   0.0000   0.0000   0.0000   0.3694
   3.750   0.9545   0.00699   0.00246  -0.1161  0.5609  1.0001  -1.2366   0.0000   0.0000   0.0000   0.3653
   4.000   0.9798   0.00711   0.00254  -0.1157  0.5515  1.0001  -1.2719   0.0000   0.0000   0.0000   0.3614
   4.250   1.0048   0.00725   0.00265  -0.1152  0.5414  1.0001  -1.3071   0.0000   0.0000   0.0000   0.3577
   4.500   1.0298   0.00739   0.00277  -0.1148  0.5313  1.0001  -1.3425   0.0000   0.0000   0.0000   0.3542
   4.750   1.0548   0.00754   0.00289  -0.1143  0.5217  1.0001  -1.3781   0.0000   0.0000   0.0000   0.3509
   5.000   1.0794   0.00771   0.00303  -0.1139  0.5120  1.0001  -1.4136   0.0000   0.0000   0.0000   0.3476
   5.250   1.1037   0.00790   0.00319  -0.1133  0.5014  1.0001  -1.4517   0.0000   0.0000   0.0000   0.3445
   5.500   1.1278   0.00810   0.00336  -0.1128  0.4899  1.0001  -1.4907   0.0000   0.0000   0.0000   0.3415
   5.750   1.1513   0.00832   0.00355  -0.1121  0.4773  1.0001  -1.5293   0.0000   0.0000   0.0000   0.3385
   6.000   1.1731   0.00863   0.00378  -0.1111  0.4615  1.0001  -1.5669   0.0000   0.0000   0.0000   0.3356
   6.250   1.1941   0.00897   0.00405  -0.1101  0.4416  1.0001  -1.6050   0.0000   0.0000   0.0000   0.3327
   6.500   1.2149   0.00932   0.00433  -0.1090  0.4238  1.0001  -1.6884   0.0000   0.0000   0.0000   0.3299
   6.750   1.2351   0.00969   0.00464  -0.1078  0.4068  1.0001  -1.8009   0.0000   0.0000   0.0000   0.3271
   7.000   1.2513   0.01023   0.00504  -0.1059  0.3790  1.0001  -1.9081   0.0000   0.0000   0.0000   0.3241
   7.250   1.2637   0.01091   0.00555  -0.1035  0.3455  1.0001  -2.0134   0.0000   0.0000   0.0000   0.3210
   7.500   1.2741   0.01164   0.00611  -0.1007  0.3132  1.0001  -2.1149   0.0000   0.0000   0.0000   0.3178
   7.750   1.2810   0.01238   0.00671  -0.0972  0.2846  1.0001  -2.2085   0.0000   0.0000   0.0000   0.3143
   8.000   1.2888   0.01317   0.00737  -0.0942  0.2591  1.0001  -2.3056   0.0000   0.0000   0.0000   0.3111
   8.250   1.2970   0.01403   0.00812  -0.0914  0.2360  1.0001  -2.4048   0.0000   0.0000   0.0000   0.3082
   8.500   1.3046   0.01503   0.00900  -0.0889  0.2131  1.0001  -2.5029   0.0000   0.0000   0.0000   0.3054
   8.750   1.3123   0.01613   0.01000  -0.0866  0.1917  1.0001  -2.6022   0.0000   0.0000   0.0000   0.3028
   9.000   1.3229   0.01716   0.01097  -0.0849  0.1758  1.0001  -2.7109   0.0000   0.0000   0.0000   0.3006
   9.250   1.3337   0.01826   0.01201  -0.0833  0.1608  1.0001  -2.8212   0.0000   0.0000   0.0000   0.2985
   9.500   1.3433   0.01946   0.01315  -0.0817  0.1447  1.0001  -2.9292   0.0000   0.0000   0.0000   0.2964
   9.750   1.3509   0.02084   0.01444  -0.0800  0.1263  1.0001  -3.0318   0.0000   0.0000   0.0000   0.2943
  10.000   1.3560   0.02241   0.01590  -0.0781  0.1050  1.0001  -3.1275   0.0000   0.0000   0.0000   0.2923
  10.250   1.3599   0.02408   0.01747  -0.0761  0.0854  1.0001  -3.2198   0.0000   0.0000   0.0000   0.2902
  10.500   1.3655   0.02564   0.01896  -0.0744  0.0712  1.0001  -3.3185   0.0000   0.0000   0.0000   0.2882
  10.750   1.3732   0.02707   0.02035  -0.0728  0.0615  1.0001  -3.4249   0.0000   0.0000   0.0000   0.2863
  11.000   1.3820   0.02842   0.02169  -0.0715  0.0544  1.0001  -3.5358   0.0000   0.0000   0.0000   0.2845
  11.250   1.3910   0.02977   0.02303  -0.0701  0.0486  1.0001  -3.6486   0.0000   0.0000   0.0000   0.2828
  11.500   1.3999   0.03114   0.02440  -0.0688  0.0428  1.0001  -3.7619   0.0000   0.0000   0.0000   0.2811
  11.750   1.4081   0.03256   0.02582  -0.0675  0.0366  1.0001  -3.8758   0.0000   0.0000   0.0000   0.2794
  12.000   1.4154   0.03408   0.02732  -0.0662  0.0310  1.0001  -3.9941   0.0000   0.0000   0.0000   0.2777
  12.250   1.4229   0.03562   0.02887  -0.0649  0.0269  1.0001  -4.1141   0.0000   0.0000   0.0000   0.2761
  12.500   1.4309   0.03716   0.03042  -0.0637  0.0241  1.0001  -4.2368   0.0000   0.0000   0.0000   0.2746
  12.750   1.4392   0.03869   0.03199  -0.0627  0.0219  1.0001  -4.3620   0.0000   0.0000   0.0000   0.2731
  13.000   1.4470   0.04032   0.03363  -0.0616  0.0201  1.0001  -4.4859   0.0000   0.0000   0.0000   0.2716
  13.250   1.4557   0.04189   0.03525  -0.0607  0.0187  1.0001  -4.6142   0.0000   0.0000   0.0000   0.2702
  13.500   1.4634   0.04357   0.03697  -0.0597  0.0175  1.0001  -4.7398   0.0000   0.0000   0.0000   0.2688
  13.750   1.4710   0.04528   0.03872  -0.0588  0.0165  1.0001  -4.8660   0.0000   0.0000   0.0000   0.2675
  14.000   1.4789   0.04702   0.04050  -0.0580  0.0158  1.0001  -4.9939   0.0000   0.0000   0.0000   0.2662
  14.250   1.4858   0.04885   0.04238  -0.0572  0.0150  1.0001  -5.1197   0.0000   0.0000   0.0000   0.2649
  14.500   1.4919   0.05079   0.04436  -0.0564  0.0144  1.0001  -5.2437   0.0000   0.0000   0.0000   0.2637
  14.750   1.4979   0.05277   0.04640  -0.0556  0.0139  1.0001  -5.3763   0.0000   0.0000   0.0000   0.2625
  15.000   1.5042   0.05476   0.04845  -0.0549  0.0135  1.0001  -5.5110   0.0000   0.0000   0.0000   0.2614
  15.250   1.5098   0.05683   0.05058  -0.0543  0.0132  1.0001  -5.6438   0.0000   0.0000   0.0000   0.2602
  15.500   1.5148   0.05899   0.05280  -0.0537  0.0129  1.0001  -5.7744   0.0000   0.0000   0.0000   0.2592
  15.750   1.5190   0.06128   0.05516  -0.0531  0.0126  1.0001  -5.9019   0.0000   0.0000   0.0000   0.2581
  16.000   1.5226   0.06367   0.05761  -0.0526  0.0124  1.0001  -6.0273   0.0000   0.0000   0.0000   0.2572
  16.250   1.5254   0.06617   0.06017  -0.0521  0.0122  1.0001  -6.1571   0.0000   0.0000   0.0000   0.2562
  16.500   1.5271   0.06881   0.06288  -0.0517  0.0119  1.0001  -6.2825   0.0000   0.0000   0.0000   0.2553
  16.750   1.5277   0.07165   0.06579  -0.0513  0.0117  1.0001  -6.4006   0.0000   0.0000   0.0000   0.2545
  17.000   1.5274   0.07464   0.06886  -0.0510  0.0115  1.0001  -6.5138   0.0000   0.0000   0.0000   0.2537
  17.250   1.5288   0.07746   0.07175  -0.0509  0.0114  1.0001  -6.6381   0.0000   0.0000   0.0000   0.2530
  17.500   1.5295   0.08037   0.07475  -0.0507  0.0113  1.0001  -6.7593   0.0000   0.0000   0.0000   0.2523
  17.750   1.5297   0.08340   0.07786  -0.0507  0.0111  1.0001  -6.8772   0.0000   0.0000   0.0000   0.2516
  18.000   1.5292   0.08654   0.08109  -0.0508  0.0109  1.0001  -7.0122   0.0000   0.0000   0.0000   0.2511
  18.250   1.5281   0.08981   0.08444  -0.0509  0.0108  1.0001  -7.1498   0.0000   0.0000   0.0000   0.2506
  18.500   1.5261   0.09321   0.08793  -0.0512  0.0106  1.0001  -7.2814   0.0000   0.0000   0.0000   0.2502
  18.750   1.5236   0.09673   0.09154  -0.0515  0.0105  1.0001  -7.4084   0.0000   0.0000   0.0000   0.2498
  19.000   1.5206   0.10036   0.09525  -0.0520  0.0104  1.0001  -7.5315   0.0000   0.0000   0.0000   0.2496
  19.250   1.5172   0.10409   0.09907  -0.0526  0.0103  1.0001  -7.6507   0.0000   0.0000   0.0000   0.2494
  19.500   1.5133   0.10790   0.10297  -0.0533  0.0102  1.0001  -7.7654   0.0000   0.0000   0.0000   0.2493
  19.750   1.5091   0.11181   0.10696  -0.0542  0.0101  1.0001  -7.8757   0.0000   0.0000   0.0000   0.2493
  20.000   1.5045   0.11581   0.11105  -0.0552  0.0099  1.0001  -7.9819   0.0000   0.0000   0.0000   0.2495


