xflr5 v6.61

 Calculated polar for: QX0026 v32

 1 1 Reynolds number fixed          Mach number fixed         

 xtrf =   1.000 (top)        1.000 (bottom)
 Mach =   0.000     Re =     0.260 e 6     Ncrit =   5.000

  alpha     CL        CD       CDp       Cm    Top Xtr Bot Xtr   Cpmin    Chinge    XCp    
 ------- -------- --------- --------- -------- ------- ------- -------- --------- ---------
 -10.000  -0.5200   0.02936   0.02320  -0.1114  0.7673  0.0143  -7.0201   0.0000   0.0000   0.0000   0.0178
  -9.750  -0.5028   0.02801   0.02171  -0.1112  0.7649  0.0146  -6.8017   0.0000   0.0000   0.0000   0.0109
  -9.500  -0.4827   0.02706   0.02065  -0.1111  0.7627  0.0150  -6.5478   0.0000   0.0000   0.0000   0.0020
  -9.250  -0.4617   0.02611   0.01956  -0.1110  0.7598  0.0156  -6.3008   0.0000   0.0000   0.0000  -0.0083
  -9.000  -0.4410   0.02497   0.01821  -0.1108  0.7573  0.0164  -6.0808   0.0000   0.0000   0.0000  -0.0192
  -8.750  -0.4201   0.02369   0.01661  -0.1105  0.7550  0.0173  -5.8931   0.0000   0.0000   0.0000  -0.0311
  -8.500  -0.3978   0.02276   0.01557  -0.1102  0.7529  0.0179  -5.6763   0.0000   0.0000   0.0000  -0.0454
  -8.250  -0.3745   0.02201   0.01474  -0.1101  0.7503  0.0186  -5.4503   0.0000   0.0000   0.0000  -0.0626
  -8.000  -0.3509   0.02120   0.01380  -0.1099  0.7477  0.0194  -5.2410   0.0000   0.0000   0.0000  -0.0822
  -7.750  -0.3270   0.02037   0.01277  -0.1096  0.7453  0.0204  -5.0458   0.0000   0.0000   0.0000  -0.1047
  -7.500  -0.3027   0.01967   0.01197  -0.1094  0.7433  0.0215  -4.8284   0.0000   0.0000   0.0000  -0.1315
  -7.250  -0.2775   0.01917   0.01140  -0.1093  0.7414  0.0228  -4.5937   0.0000   0.0000   0.0000  -0.1650
  -7.000  -0.2522   0.01860   0.01070  -0.1092  0.7390  0.0244  -4.3831   0.0000   0.0000   0.0000  -0.2049
  -6.750  -0.2272   0.01803   0.01008  -0.1090  0.7366  0.0256  -4.1652   0.0000   0.0000   0.0000  -0.2532
  -6.500  -0.2016   0.01754   0.00952  -0.1089  0.7344  0.0272  -3.9489   0.0000   0.0000   0.0000  -0.3152
  -6.250  -0.1757   0.01706   0.00893  -0.1087  0.7325  0.0292  -3.7374   0.0000   0.0000   0.0000  -0.3961
  -6.000  -0.1497   0.01665   0.00848  -0.1087  0.7307  0.0313  -3.5208   0.0000   0.0000   0.0000  -0.5065
  -5.750  -0.1237   0.01622   0.00799  -0.1085  0.7283  0.0335  -3.3176   0.0000   0.0000   0.0000  -0.6623
  -5.500  -0.0974   0.01585   0.00759  -0.1085  0.7261  0.0361  -3.1084   0.0000   0.0000   0.0000  -0.9051
  -5.250  -0.0710   0.01549   0.00718  -0.1084  0.7240  0.0392  -2.9045   0.0000   0.0000   0.0000  -1.3314
  -5.000  -0.0442   0.01516   0.00679  -0.1083  0.7221  0.0428  -2.7048   0.0000   0.0000   0.0000  -2.2849
  -4.750  -0.0174   0.01485   0.00644  -0.1083  0.7202  0.0471  -2.5070   0.0000   0.0000   0.0000  -6.1610
  -4.500   0.0092   0.01456   0.00615  -0.1082  0.7175  0.0527  -2.3143   0.0000   0.0000   0.0000  12.4234
  -4.250   0.0360   0.01428   0.00587  -0.1082  0.7150  0.0598  -2.1318   0.0000   0.0000   0.0000   3.3421
  -4.000   0.0629   0.01401   0.00560  -0.1082  0.7128  0.0697  -1.9622   0.0000   0.0000   0.0000   2.0130
  -3.750   0.0901   0.01374   0.00534  -0.1082  0.7111  0.0839  -1.7956   0.0000   0.0000   0.0000   1.4791
  -3.500   0.1171   0.01349   0.00515  -0.1082  0.7090  0.1031  -1.6335   0.0000   0.0000   0.0000   1.1949
  -3.250   0.1437   0.01326   0.00501  -0.1082  0.7064  0.1283  -1.4801   0.0000   0.0000   0.0000   1.0180
  -3.000   0.1707   0.01304   0.00487  -0.1082  0.7040  0.1578  -1.3440   0.0000   0.0000   0.0000   0.8956
  -2.750   0.1978   0.01281   0.00473  -0.1082  0.7020  0.1918  -1.2181   0.0000   0.0000   0.0000   0.8064
  -2.500   0.2250   0.01258   0.00461  -0.1083  0.7003  0.2327  -1.0948   0.0000   0.0000   0.0000   0.7385
  -2.250   0.2517   0.01238   0.00455  -0.1083  0.6980  0.2778  -0.9830   0.0000   0.0000   0.0000   0.6859
  -2.000   0.2782   0.01221   0.00453  -0.1082  0.6950  0.3242  -0.8768   0.0000   0.0000   0.0000   0.6433
  -1.750   0.3051   0.01204   0.00447  -0.1082  0.6924  0.3703  -0.7723   0.0000   0.0000   0.0000   0.6078
  -1.500   0.3323   0.01188   0.00441  -0.1081  0.6903  0.4126  -0.7671   0.0000   0.0000   0.0000   0.5777
  -1.250   0.3594   0.01175   0.00437  -0.1081  0.6882  0.4547  -0.7829   0.0000   0.0000   0.0000   0.5522
  -1.000   0.3855   0.01164   0.00442  -0.1079  0.6852  0.4972  -0.7979   0.0000   0.0000   0.0000   0.5306
  -0.750   0.4119   0.01153   0.00443  -0.1076  0.6827  0.5425  -0.8132   0.0000   0.0000   0.0000   0.5116
  -0.500   0.4386   0.01141   0.00442  -0.1074  0.6805  0.5876  -0.8289   0.0000   0.0000   0.0000   0.4946
  -0.250   0.4654   0.01128   0.00440  -0.1071  0.6784  0.6362  -0.8466   0.0000   0.0000   0.0000   0.4794
   0.000   0.4904   0.01119   0.00449  -0.1066  0.6748  0.6846  -0.8630   0.0000   0.0000   0.0000   0.4661
   0.250   0.5158   0.01109   0.00453  -0.1060  0.6717  0.7344  -0.8798   0.0000   0.0000   0.0000   0.4538
   0.500   0.5415   0.01097   0.00454  -0.1053  0.6694  0.7889  -0.8970   0.0000   0.0000   0.0000   0.4425
   0.750   0.5694   0.01084   0.00454  -0.1051  0.6673  0.8499  -0.9154   0.0000   0.0000   0.0000   0.4321
   1.000   0.6116   0.01081   0.00465  -0.1081  0.6637  0.9178  -0.9422   0.0000   0.0000   0.0000   0.4239
   1.250   0.6639   0.01080   0.00463  -0.1134  0.6605  0.9809  -0.9757   0.0000   0.0000   0.0000   0.4177
   1.500   0.6996   0.01084   0.00460  -0.1152  0.6577  1.0001  -1.0005   0.0000   0.0000   0.0000   0.4113
   1.750   0.7247   0.01093   0.00468  -0.1148  0.6542  1.0001  -1.0192   0.0000   0.0000   0.0000   0.4047
   2.000   0.7500   0.01102   0.00475  -0.1145  0.6507  1.0001  -1.0387   0.0000   0.0000   0.0000   0.3986
   2.250   0.7764   0.01107   0.00476  -0.1143  0.6477  1.0001  -1.0607   0.0000   0.0000   0.0000   0.3928
   2.500   0.8022   0.01115   0.00481  -0.1140  0.6440  1.0001  -1.0823   0.0000   0.0000   0.0000   0.3874
   2.750   0.8277   0.01123   0.00491  -0.1136  0.6397  1.0001  -1.1037   0.0000   0.0000   0.0000   0.3823
   3.000   0.8544   0.01129   0.00492  -0.1134  0.6364  1.0001  -1.1282   0.0000   0.0000   0.0000   0.3775
   3.250   0.8798   0.01139   0.00504  -0.1131  0.6321  1.0001  -1.1523   0.0000   0.0000   0.0000   0.3729
   3.500   0.9056   0.01147   0.00513  -0.1128  0.6275  1.0001  -1.1813   0.0000   0.0000   0.0000   0.3686
   3.750   0.9319   0.01154   0.00518  -0.1126  0.6234  1.0001  -1.2143   0.0000   0.0000   0.0000   0.3646
   4.000   0.9569   0.01165   0.00532  -0.1121  0.6178  1.0001  -1.2483   0.0000   0.0000   0.0000   0.3607
   4.250   0.9832   0.01171   0.00536  -0.1119  0.6131  1.0001  -1.2844   0.0000   0.0000   0.0000   0.3570
   4.500   1.0079   0.01181   0.00550  -0.1114  0.6063  1.0001  -1.3193   0.0000   0.0000   0.0000   0.3534
   4.750   1.0331   0.01189   0.00558  -0.1110  0.5996  1.0001  -1.3549   0.0000   0.0000   0.0000   0.3500
   5.000   1.0585   0.01195   0.00563  -0.1106  0.5926  1.0001  -1.3911   0.0000   0.0000   0.0000   0.3467
   5.250   1.0826   0.01208   0.00580  -0.1100  0.5843  1.0001  -1.4267   0.0000   0.0000   0.0000   0.3435
   5.500   1.1070   0.01220   0.00595  -0.1095  0.5766  1.0001  -1.4656   0.0000   0.0000   0.0000   0.3405
   5.750   1.1313   0.01233   0.00609  -0.1089  0.5686  1.0001  -1.5048   0.0000   0.0000   0.0000   0.3375
   6.000   1.1553   0.01247   0.00624  -0.1083  0.5600  1.0001  -1.5439   0.0000   0.0000   0.0000   0.3347
   6.250   1.1786   0.01265   0.00644  -0.1076  0.5509  1.0001  -1.5830   0.0000   0.0000   0.0000   0.3319
   6.500   1.2016   0.01284   0.00666  -0.1069  0.5416  1.0001  -1.6408   0.0000   0.0000   0.0000   0.3292
   6.750   1.2241   0.01305   0.00690  -0.1060  0.5315  1.0001  -1.7570   0.0000   0.0000   0.0000   0.3265
   7.000   1.2458   0.01329   0.00715  -0.1051  0.5207  1.0001  -1.8740   0.0000   0.0000   0.0000   0.3239
   7.250   1.2667   0.01356   0.00741  -0.1040  0.5090  1.0001  -1.9912   0.0000   0.0000   0.0000   0.3212
   7.500   1.2858   0.01388   0.00772  -0.1026  0.4951  1.0001  -2.1115   0.0000   0.0000   0.0000   0.3186
   7.750   1.3030   0.01426   0.00808  -0.1009  0.4782  1.0001  -2.2317   0.0000   0.0000   0.0000   0.3158
   8.000   1.3174   0.01473   0.00849  -0.0987  0.4601  1.0001  -2.3468   0.0000   0.0000   0.0000   0.3130
   8.250   1.3278   0.01528   0.00898  -0.0959  0.4403  1.0001  -2.4527   0.0000   0.0000   0.0000   0.3099
   8.500   1.3354   0.01595   0.00958  -0.0927  0.4205  1.0001  -2.5524   0.0000   0.0000   0.0000   0.3067
   8.750   1.3411   0.01679   0.01035  -0.0895  0.3983  1.0001  -2.6471   0.0000   0.0000   0.0000   0.3036
   9.000   1.3437   0.01789   0.01134  -0.0862  0.3738  1.0001  -2.7335   0.0000   0.0000   0.0000   0.3006
   9.250   1.3449   0.01923   0.01257  -0.0831  0.3476  1.0001  -2.8162   0.0000   0.0000   0.0000   0.2978
   9.500   1.3455   0.02079   0.01401  -0.0803  0.3219  1.0001  -2.8966   0.0000   0.0000   0.0000   0.2952
   9.750   1.3453   0.02254   0.01564  -0.0777  0.2958  1.0001  -2.9750   0.0000   0.0000   0.0000   0.2928
  10.000   1.3457   0.02436   0.01735  -0.0754  0.2704  1.0001  -3.0548   0.0000   0.0000   0.0000   0.2906
  10.250   1.3464   0.02621   0.01910  -0.0732  0.2474  1.0001  -3.1360   0.0000   0.0000   0.0000   0.2885
  10.500   1.3478   0.02806   0.02085  -0.0711  0.2266  1.0001  -3.2196   0.0000   0.0000   0.0000   0.2864
  10.750   1.3504   0.02985   0.02257  -0.0692  0.2080  1.0001  -3.3074   0.0000   0.0000   0.0000   0.2845
  11.000   1.3534   0.03165   0.02431  -0.0675  0.1903  1.0001  -3.3964   0.0000   0.0000   0.0000   0.2826
  11.250   1.3568   0.03344   0.02606  -0.0658  0.1737  1.0001  -3.4874   0.0000   0.0000   0.0000   0.2808
  11.500   1.3597   0.03530   0.02786  -0.0642  0.1567  1.0001  -3.5770   0.0000   0.0000   0.0000   0.2790
  11.750   1.3623   0.03722   0.02972  -0.0626  0.1386  1.0001  -3.6654   0.0000   0.0000   0.0000   0.2772
  12.000   1.3629   0.03935   0.03177  -0.0609  0.1196  1.0001  -3.7477   0.0000   0.0000   0.0000   0.2755
  12.250   1.3628   0.04161   0.03395  -0.0594  0.1005  1.0001  -3.8337   0.0000   0.0000   0.0000   0.2739
  12.500   1.3630   0.04391   0.03618  -0.0579  0.0851  1.0001  -3.9206   0.0000   0.0000   0.0000   0.2723
  12.750   1.3641   0.04620   0.03844  -0.0566  0.0736  1.0001  -4.0108   0.0000   0.0000   0.0000   0.2709
  13.000   1.3666   0.04842   0.04065  -0.0555  0.0647  1.0001  -4.1060   0.0000   0.0000   0.0000   0.2695
  13.250   1.3692   0.05068   0.04292  -0.0544  0.0573  1.0001  -4.2016   0.0000   0.0000   0.0000   0.2681
  13.500   1.3724   0.05294   0.04521  -0.0535  0.0510  1.0001  -4.2992   0.0000   0.0000   0.0000   0.2668
  13.750   1.3754   0.05526   0.04755  -0.0527  0.0452  1.0001  -4.3962   0.0000   0.0000   0.0000   0.2656
  14.000   1.3782   0.05764   0.04998  -0.0519  0.0402  1.0001  -4.4921   0.0000   0.0000   0.0000   0.2645
  14.250   1.3807   0.06010   0.05248  -0.0512  0.0361  1.0001  -4.5867   0.0000   0.0000   0.0000   0.2634
  14.500   1.3829   0.06265   0.05508  -0.0505  0.0330  1.0001  -4.6797   0.0000   0.0000   0.0000   0.2623
  15.000   1.3860   0.06801   0.06057  -0.0495  0.0288  1.0001  -4.8634   0.0000   0.0000   0.0000   0.2604
  15.250   1.3863   0.07092   0.06354  -0.0491  0.0273  1.0001  -4.9565   0.0000   0.0000   0.0000   0.2596
  15.500   1.3864   0.07390   0.06661  -0.0488  0.0262  1.0001  -5.0472   0.0000   0.0000   0.0000   0.2588
  15.750   1.3867   0.07690   0.06971  -0.0486  0.0251  1.0001  -5.1376   0.0000   0.0000   0.0000   0.2581
  16.000   1.3858   0.08009   0.07299  -0.0484  0.0243  1.0001  -5.2236   0.0000   0.0000   0.0000   0.2575
  16.250   1.3834   0.08353   0.07651  -0.0484  0.0236  1.0001  -5.3022   0.0000   0.0000   0.0000   0.2570
  16.500   1.3813   0.08699   0.08006  -0.0485  0.0230  1.0001  -5.3792   0.0000   0.0000   0.0000   0.2565
  16.750   1.3800   0.09038   0.08356  -0.0487  0.0224  1.0001  -5.4599   0.0000   0.0000   0.0000   0.2561
  17.000   1.3782   0.09386   0.08716  -0.0489  0.0218  1.0001  -5.5457   0.0000   0.0000   0.0000   0.2558
  17.250   1.3761   0.09744   0.09084  -0.0493  0.0213  1.0001  -5.6295   0.0000   0.0000   0.0000   0.2555
  17.500   1.3735   0.10112   0.09461  -0.0499  0.0208  1.0001  -5.7111   0.0000   0.0000   0.0000   0.2554
  17.750   1.3702   0.10494   0.09850  -0.0505  0.0204  1.0001  -5.7874   0.0000   0.0000   0.0000   0.2554
  18.000   1.3657   0.10894   0.10256  -0.0513  0.0200  1.0001  -5.8557   0.0000   0.0000   0.0000   0.2555
  18.250   1.3650   0.11243   0.10618  -0.0520  0.0196  1.0001  -5.9412   0.0000   0.0000   0.0000   0.2554
  18.500   1.3639   0.11600   0.10986  -0.0529  0.0192  1.0001  -6.0241   0.0000   0.0000   0.0000   0.2555
  18.750   1.3628   0.11960   0.11357  -0.0538  0.0188  1.0001  -6.1057   0.0000   0.0000   0.0000   0.2556
  19.000   1.3617   0.12320   0.11726  -0.0549  0.0185  1.0001  -6.1992   0.0000   0.0000   0.0000   0.2558
  19.250   1.3608   0.12677   0.12093  -0.0560  0.0181  1.0001  -6.3070   0.0000   0.0000   0.0000   0.2560
  19.500   1.3603   0.13032   0.12456  -0.0572  0.0179  1.0001  -6.4164   0.0000   0.0000   0.0000   0.2563
  19.750   1.3599   0.13385   0.12816  -0.0585  0.0176  1.0001  -6.5270   0.0000   0.0000   0.0000   0.2567
  20.000   1.3599   0.13732   0.13170  -0.0599  0.0173  1.0001  -6.6394   0.0000   0.0000   0.0000   0.2570


