xflr5 v6.61

 Calculated polar for: QX0026 v32

 1 1 Reynolds number fixed          Mach number fixed         

 xtrf =   1.000 (top)        1.000 (bottom)
 Mach =   0.000     Re =     0.980 e 6     Ncrit =   5.000

  alpha     CL        CD       CDp       Cm    Top Xtr Bot Xtr   Cpmin    Chinge    XCp    
 ------- -------- --------- --------- -------- ------- ------- -------- --------- ---------
 -10.000  -0.5910   0.01558   0.00969  -0.1059  0.7116  0.0084  -8.2837   0.0000   0.0000   0.0000   0.0543
  -9.750  -0.5655   0.01514   0.00917  -0.1058  0.7096  0.0087  -7.9557   0.0000   0.0000   0.0000   0.0465
  -9.500  -0.5395   0.01472   0.00868  -0.1058  0.7074  0.0089  -7.6292   0.0000   0.0000   0.0000   0.0375
  -9.250  -0.5141   0.01422   0.00813  -0.1057  0.7053  0.0093  -7.3152   0.0000   0.0000   0.0000   0.0280
  -9.000  -0.4880   0.01382   0.00769  -0.1056  0.7034  0.0097  -6.9957   0.0000   0.0000   0.0000   0.0170
  -8.750  -0.4615   0.01347   0.00729  -0.1056  0.7016  0.0102  -6.6964   0.0000   0.0000   0.0000   0.0045
  -8.500  -0.4350   0.01314   0.00690  -0.1056  0.6999  0.0107  -6.4083   0.0000   0.0000   0.0000  -0.0096
  -8.250  -0.4080   0.01283   0.00654  -0.1056  0.6981  0.0111  -6.1241   0.0000   0.0000   0.0000  -0.0259
  -8.000  -0.3811   0.01251   0.00617  -0.1056  0.6961  0.0116  -5.8454   0.0000   0.0000   0.0000  -0.0446
  -7.750  -0.3542   0.01218   0.00582  -0.1056  0.6941  0.0123  -5.5692   0.0000   0.0000   0.0000  -0.0660
  -7.500  -0.3270   0.01191   0.00551  -0.1056  0.6923  0.0130  -5.2950   0.0000   0.0000   0.0000  -0.0915
  -7.250  -0.2997   0.01166   0.00522  -0.1056  0.6906  0.0137  -5.0264   0.0000   0.0000   0.0000  -0.1218
  -7.000  -0.2723   0.01143   0.00493  -0.1057  0.6891  0.0144  -4.7634   0.0000   0.0000   0.0000  -0.1582
  -6.750  -0.2448   0.01116   0.00466  -0.1057  0.6874  0.0155  -4.5032   0.0000   0.0000   0.0000  -0.2032
  -6.500  -0.2170   0.01094   0.00443  -0.1058  0.6856  0.0166  -4.2465   0.0000   0.0000   0.0000  -0.2603
  -6.250  -0.1892   0.01074   0.00419  -0.1059  0.6836  0.0177  -3.9967   0.0000   0.0000   0.0000  -0.3344
  -6.000  -0.1616   0.01052   0.00396  -0.1060  0.6815  0.0190  -3.7521   0.0000   0.0000   0.0000  -0.4333
  -5.750  -0.1337   0.01034   0.00375  -0.1061  0.6795  0.0203  -3.5131   0.0000   0.0000   0.0000  -0.5742
  -5.500  -0.1059   0.01015   0.00354  -0.1061  0.6776  0.0219  -3.2796   0.0000   0.0000   0.0000  -0.7892
  -5.250  -0.0778   0.00997   0.00336  -0.1063  0.6757  0.0239  -3.0502   0.0000   0.0000   0.0000  -1.1636
  -5.000  -0.0497   0.00980   0.00317  -0.1064  0.6737  0.0259  -2.8274   0.0000   0.0000   0.0000  -1.9605
  -4.750  -0.0216   0.00964   0.00300  -0.1065  0.6718  0.0283  -2.6099   0.0000   0.0000   0.0000  -4.8387
  -4.500   0.0065   0.00948   0.00284  -0.1066  0.6699  0.0310  -2.3992   0.0000   0.0000   0.0000  17.1925
  -4.250   0.0346   0.00934   0.00268  -0.1067  0.6681  0.0340  -2.1940   0.0000   0.0000   0.0000   3.4186
  -4.000   0.0628   0.00920   0.00255  -0.1069  0.6664  0.0383  -1.9996   0.0000   0.0000   0.0000   1.9929
  -3.750   0.0912   0.00904   0.00241  -0.1070  0.6643  0.0438  -1.8224   0.0000   0.0000   0.0000   1.4510
  -3.500   0.1194   0.00890   0.00229  -0.1072  0.6621  0.0504  -1.6504   0.0000   0.0000   0.0000   1.1663
  -3.250   0.1476   0.00876   0.00217  -0.1073  0.6598  0.0597  -1.4866   0.0000   0.0000   0.0000   0.9909
  -3.000   0.1756   0.00862   0.00206  -0.1074  0.6576  0.0719  -1.3492   0.0000   0.0000   0.0000   0.8722
  -2.750   0.2038   0.00846   0.00196  -0.1076  0.6554  0.0884  -1.2186   0.0000   0.0000   0.0000   0.7861
  -2.500   0.2319   0.00830   0.00188  -0.1078  0.6531  0.1086  -1.0915   0.0000   0.0000   0.0000   0.7208
  -2.250   0.2600   0.00816   0.00180  -0.1079  0.6507  0.1308  -0.9749   0.0000   0.0000   0.0000   0.6697
  -2.000   0.2881   0.00803   0.00173  -0.1081  0.6484  0.1530  -0.8648   0.0000   0.0000   0.0000   0.6285
  -1.750   0.3161   0.00791   0.00166  -0.1082  0.6462  0.1781  -0.7658   0.0000   0.0000   0.0000   0.5948
  -1.500   0.3442   0.00776   0.00162  -0.1083  0.6437  0.2095  -0.7817   0.0000   0.0000   0.0000   0.5665
  -1.250   0.3722   0.00760   0.00158  -0.1085  0.6410  0.2482  -0.7980   0.0000   0.0000   0.0000   0.5425
  -1.000   0.4001   0.00747   0.00154  -0.1086  0.6383  0.2847  -0.8144   0.0000   0.0000   0.0000   0.5219
  -0.750   0.4278   0.00736   0.00152  -0.1087  0.6359  0.3241  -0.8307   0.0000   0.0000   0.0000   0.5040
  -0.500   0.4561   0.00726   0.00152  -0.1089  0.6333  0.3566  -0.8472   0.0000   0.0000   0.0000   0.4881
  -0.250   0.4843   0.00717   0.00152  -0.1091  0.6303  0.3891  -0.8639   0.0000   0.0000   0.0000   0.4741
   0.000   0.5124   0.00710   0.00152  -0.1092  0.6273  0.4197  -0.8823   0.0000   0.0000   0.0000   0.4616
   0.250   0.5402   0.00704   0.00152  -0.1093  0.6244  0.4514  -0.9005   0.0000   0.0000   0.0000   0.4504
   0.500   0.5686   0.00697   0.00154  -0.1095  0.6211  0.4787  -0.9190   0.0000   0.0000   0.0000   0.4403
   0.750   0.5965   0.00690   0.00156  -0.1096  0.6176  0.5138  -0.9374   0.0000   0.0000   0.0000   0.4311
   1.000   0.6241   0.00683   0.00158  -0.1097  0.6144  0.5528  -0.9556   0.0000   0.0000   0.0000   0.4227
   1.250   0.6519   0.00677   0.00162  -0.1098  0.6108  0.5897  -0.9760   0.0000   0.0000   0.0000   0.4150
   1.500   0.6794   0.00670   0.00166  -0.1098  0.6066  0.6321  -0.9963   0.0000   0.0000   0.0000   0.4079
   1.750   0.7062   0.00664   0.00171  -0.1096  0.6027  0.6794  -1.0162   0.0000   0.0000   0.0000   0.4013
   2.000   0.7332   0.00656   0.00177  -0.1095  0.5986  0.7267  -1.0363   0.0000   0.0000   0.0000   0.3951
   2.250   0.7597   0.00651   0.00183  -0.1093  0.5939  0.7699  -1.0576   0.0000   0.0000   0.0000   0.3893
   2.500   0.7859   0.00645   0.00189  -0.1090  0.5890  0.8142  -1.0796   0.0000   0.0000   0.0000   0.3838
   2.750   0.8113   0.00638   0.00196  -0.1084  0.5831  0.8643  -1.1013   0.0000   0.0000   0.0000   0.3785
   3.000   0.8474   0.00630   0.00205  -0.1103  0.5760  0.9409  -1.1302   0.0000   0.0000   0.0000   0.3747
   3.250   0.9019   0.00640   0.00213  -0.1164  0.5660  0.9935  -1.1723   0.0000   0.0000   0.0000   0.3734
   3.500   0.9315   0.00652   0.00221  -0.1170  0.5572  1.0001  -1.2041   0.0000   0.0000   0.0000   0.3696
   3.750   0.9565   0.00665   0.00230  -0.1165  0.5476  1.0001  -1.2385   0.0000   0.0000   0.0000   0.3655
   4.000   0.9815   0.00679   0.00240  -0.1161  0.5370  1.0001  -1.2735   0.0000   0.0000   0.0000   0.3616
   4.250   1.0064   0.00693   0.00251  -0.1156  0.5261  1.0001  -1.3087   0.0000   0.0000   0.0000   0.3579
   4.500   1.0312   0.00709   0.00262  -0.1151  0.5164  1.0001  -1.3440   0.0000   0.0000   0.0000   0.3544
   4.750   1.0561   0.00725   0.00275  -0.1147  0.5067  1.0001  -1.3795   0.0000   0.0000   0.0000   0.3510
   5.000   1.0806   0.00742   0.00290  -0.1142  0.4959  1.0001  -1.4149   0.0000   0.0000   0.0000   0.3478
   5.500   1.1287   0.00783   0.00323  -0.1130  0.4722  1.0001  -1.4918   0.0000   0.0000   0.0000   0.3416
   5.750   1.1515   0.00810   0.00344  -0.1122  0.4567  1.0001  -1.5299   0.0000   0.0000   0.0000   0.3386
   6.000   1.1728   0.00843   0.00369  -0.1112  0.4366  1.0001  -1.5672   0.0000   0.0000   0.0000   0.3356
   6.250   1.1938   0.00879   0.00396  -0.1101  0.4186  1.0001  -1.6052   0.0000   0.0000   0.0000   0.3327
   6.500   1.2152   0.00911   0.00423  -0.1091  0.4012  1.0001  -1.6905   0.0000   0.0000   0.0000   0.3300
   6.750   1.2328   0.00961   0.00460  -0.1075  0.3757  1.0001  -1.7969   0.0000   0.0000   0.0000   0.3270
   7.000   1.2468   0.01026   0.00507  -0.1053  0.3408  1.0001  -1.8996   0.0000   0.0000   0.0000   0.3239
   7.250   1.2592   0.01094   0.00558  -0.1028  0.3074  1.0001  -2.0048   0.0000   0.0000   0.0000   0.3208
   7.500   1.2702   0.01161   0.00610  -0.1001  0.2788  1.0001  -2.1077   0.0000   0.0000   0.0000   0.3176
   7.750   1.2783   0.01232   0.00667  -0.0969  0.2538  1.0001  -2.2046   0.0000   0.0000   0.0000   0.3142
   8.000   1.2878   0.01304   0.00729  -0.0941  0.2308  1.0001  -2.3064   0.0000   0.0000   0.0000   0.3111
   8.250   1.2968   0.01387   0.00801  -0.0915  0.2094  1.0001  -2.4076   0.0000   0.0000   0.0000   0.3082
   8.500   1.3052   0.01482   0.00885  -0.0890  0.1880  1.0001  -2.5082   0.0000   0.0000   0.0000   0.3055
   8.750   1.3156   0.01577   0.00973  -0.0871  0.1708  1.0001  -2.6155   0.0000   0.0000   0.0000   0.3030
   9.000   1.3269   0.01675   0.01065  -0.0854  0.1563  1.0001  -2.7265   0.0000   0.0000   0.0000   0.3008
   9.250   1.3371   0.01786   0.01169  -0.0837  0.1398  1.0001  -2.8356   0.0000   0.0000   0.0000   0.2986
   9.500   1.3446   0.01921   0.01294  -0.0819  0.1200  1.0001  -2.9371   0.0000   0.0000   0.0000   0.2965
   9.750   1.3498   0.02076   0.01437  -0.0799  0.0981  1.0001  -3.0322   0.0000   0.0000   0.0000   0.2944
  10.000   1.3550   0.02232   0.01585  -0.0780  0.0794  1.0001  -3.1282   0.0000   0.0000   0.0000   0.2923
  10.250   1.3627   0.02372   0.01719  -0.0764  0.0673  1.0001  -3.2330   0.0000   0.0000   0.0000   0.2903
  10.500   1.3721   0.02502   0.01846  -0.0750  0.0585  1.0001  -3.3443   0.0000   0.0000   0.0000   0.2884
  10.750   1.3821   0.02627   0.01969  -0.0737  0.0522  1.0001  -3.4591   0.0000   0.0000   0.0000   0.2866
  11.000   1.3926   0.02750   0.02092  -0.0724  0.0466  1.0001  -3.5763   0.0000   0.0000   0.0000   0.2849
  11.250   1.4023   0.02879   0.02220  -0.0711  0.0405  1.0001  -3.6923   0.0000   0.0000   0.0000   0.2831
  11.500   1.4106   0.03018   0.02358  -0.0698  0.0342  1.0001  -3.8046   0.0000   0.0000   0.0000   0.2814
  11.750   1.4189   0.03159   0.02498  -0.0684  0.0290  1.0001  -3.9218   0.0000   0.0000   0.0000   0.2797
  12.000   1.4272   0.03301   0.02641  -0.0671  0.0253  1.0001  -4.0448   0.0000   0.0000   0.0000   0.2780
  12.250   1.4358   0.03445   0.02786  -0.0659  0.0228  1.0001  -4.1700   0.0000   0.0000   0.0000   0.2764
  12.500   1.4448   0.03588   0.02932  -0.0648  0.0207  1.0001  -4.2978   0.0000   0.0000   0.0000   0.2749
  12.750   1.4539   0.03733   0.03079  -0.0637  0.0190  1.0001  -4.4272   0.0000   0.0000   0.0000   0.2734
  13.000   1.4625   0.03885   0.03234  -0.0627  0.0175  1.0001  -4.5560   0.0000   0.0000   0.0000   0.2719
  13.250   1.4713   0.04039   0.03392  -0.0617  0.0164  1.0001  -4.6865   0.0000   0.0000   0.0000   0.2705
  13.500   1.4801   0.04196   0.03552  -0.0608  0.0155  1.0001  -4.8179   0.0000   0.0000   0.0000   0.2691
  13.750   1.4879   0.04363   0.03723  -0.0599  0.0147  1.0001  -4.9471   0.0000   0.0000   0.0000   0.2678
  14.000   1.4954   0.04535   0.03899  -0.0590  0.0140  1.0001  -5.0758   0.0000   0.0000   0.0000   0.2664
  14.250   1.5034   0.04707   0.04075  -0.0582  0.0135  1.0001  -5.2079   0.0000   0.0000   0.0000   0.2652
  14.500   1.5107   0.04886   0.04260  -0.0574  0.0131  1.0001  -5.3407   0.0000   0.0000   0.0000   0.2639
  14.750   1.5175   0.05072   0.04451  -0.0566  0.0127  1.0001  -5.4792   0.0000   0.0000   0.0000   0.2627
  15.000   1.5236   0.05270   0.04653  -0.0559  0.0124  1.0001  -5.6152   0.0000   0.0000   0.0000   0.2615
  15.250   1.5290   0.05477   0.04866  -0.0552  0.0121  1.0001  -5.7488   0.0000   0.0000   0.0000   0.2604
  15.500   1.5334   0.05695   0.05090  -0.0545  0.0118  1.0001  -5.8784   0.0000   0.0000   0.0000   0.2593
  15.750   1.5371   0.05926   0.05326  -0.0538  0.0115  1.0001  -6.0036   0.0000   0.0000   0.0000   0.2582
  16.000   1.5418   0.06148   0.05555  -0.0533  0.0114  1.0001  -6.1389   0.0000   0.0000   0.0000   0.2572
  16.250   1.5460   0.06380   0.05794  -0.0528  0.0113  1.0001  -6.2788   0.0000   0.0000   0.0000   0.2562
  16.500   1.5496   0.06621   0.06041  -0.0523  0.0111  1.0001  -6.4163   0.0000   0.0000   0.0000   0.2552
  16.750   1.5525   0.06870   0.06298  -0.0519  0.0110  1.0001  -6.5513   0.0000   0.0000   0.0000   0.2543
  17.000   1.5549   0.07131   0.06566  -0.0516  0.0108  1.0001  -6.6839   0.0000   0.0000   0.0000   0.2535
  17.250   1.5566   0.07403   0.06845  -0.0513  0.0106  1.0001  -6.8137   0.0000   0.0000   0.0000   0.2527
  17.500   1.5577   0.07685   0.07135  -0.0511  0.0104  1.0001  -6.9406   0.0000   0.0000   0.0000   0.2519
  17.750   1.5579   0.07980   0.07437  -0.0510  0.0103  1.0001  -7.0752   0.0000   0.0000   0.0000   0.2512
  18.000   1.5573   0.08288   0.07752  -0.0509  0.0101  1.0001  -7.2206   0.0000   0.0000   0.0000   0.2506
  18.250   1.5561   0.08610   0.08082  -0.0510  0.0100  1.0001  -7.3612   0.0000   0.0000   0.0000   0.2500
  18.500   1.5542   0.08945   0.08425  -0.0511  0.0099  1.0001  -7.4968   0.0000   0.0000   0.0000   0.2495
  18.750   1.5513   0.09295   0.08783  -0.0514  0.0098  1.0001  -7.6253   0.0000   0.0000   0.0000   0.2491
  19.000   1.5475   0.09662   0.09157  -0.0517  0.0096  1.0001  -7.7463   0.0000   0.0000   0.0000   0.2488
  19.250   1.5426   0.10048   0.09552  -0.0522  0.0095  1.0001  -7.8584   0.0000   0.0000   0.0000   0.2486
  19.500   1.5367   0.10455   0.09968  -0.0529  0.0094  1.0001  -7.9599   0.0000   0.0000   0.0000   0.2485
  19.750   1.5294   0.10885   0.10407  -0.0537  0.0092  1.0001  -8.0485   0.0000   0.0000   0.0000   0.2486
  20.000   1.5257   0.11267   0.10797  -0.0545  0.0092  1.0001  -8.1656   0.0000   0.0000   0.0000   0.2485


