xflr5 v6.61

 Calculated polar for: QX0026 v32

 1 1 Reynolds number fixed          Mach number fixed         

 xtrf =   1.000 (top)        1.000 (bottom)
 Mach =   0.000     Re =     0.200 e 6     Ncrit =   5.000

  alpha     CL        CD       CDp       Cm    Top Xtr Bot Xtr   Cpmin    Chinge    XCp    
 ------- -------- --------- --------- -------- ------- ------- -------- --------- ---------
 -10.000  -0.4594   0.03983   0.03457  -0.1119  0.7840  0.0165  -6.0475   0.0000   0.0000   0.0000  -0.0129
  -9.750  -0.4652   0.03529   0.02946  -0.1129  0.7806  0.0170  -6.1510   0.0000   0.0000   0.0000  -0.0113
  -9.500  -0.4577   0.03240   0.02613  -0.1129  0.7776  0.0176  -6.0993   0.0000   0.0000   0.0000  -0.0151
  -9.250  -0.4394   0.03131   0.02493  -0.1129  0.7750  0.0181  -5.8703   0.0000   0.0000   0.0000  -0.0253
  -9.000  -0.4213   0.02995   0.02337  -0.1127  0.7726  0.0187  -5.6756   0.0000   0.0000   0.0000  -0.0360
  -8.750  -0.4035   0.02824   0.02138  -0.1125  0.7697  0.0194  -5.5193   0.0000   0.0000   0.0000  -0.0473
  -8.500  -0.3849   0.02648   0.01927  -0.1121  0.7670  0.0202  -5.3969   0.0000   0.0000   0.0000  -0.0599
  -8.250  -0.3645   0.02497   0.01744  -0.1116  0.7647  0.0210  -5.2635   0.0000   0.0000   0.0000  -0.0754
  -8.000  -0.3417   0.02412   0.01651  -0.1114  0.7624  0.0218  -5.0490   0.0000   0.0000   0.0000  -0.0956
  -7.750  -0.3183   0.02335   0.01562  -0.1113  0.7595  0.0230  -4.8403   0.0000   0.0000   0.0000  -0.1197
  -7.500  -0.2947   0.02241   0.01440  -0.1110  0.7569  0.0247  -4.6678   0.0000   0.0000   0.0000  -0.1473
  -7.250  -0.2707   0.02172   0.01369  -0.1108  0.7546  0.0258  -4.4465   0.0000   0.0000   0.0000  -0.1810
  -7.000  -0.2461   0.02100   0.01283  -0.1106  0.7528  0.0272  -4.2483   0.0000   0.0000   0.0000  -0.2220
  -6.750  -0.2216   0.02026   0.01195  -0.1103  0.7502  0.0289  -4.0623   0.0000   0.0000   0.0000  -0.2718
  -6.500  -0.1967   0.01975   0.01142  -0.1102  0.7476  0.0308  -3.8460   0.0000   0.0000   0.0000  -0.3361
  -6.250  -0.1714   0.01917   0.01069  -0.1100  0.7452  0.0331  -3.6534   0.0000   0.0000   0.0000  -0.4200
  -6.000  -0.1462   0.01862   0.01011  -0.1098  0.7432  0.0349  -3.4492   0.0000   0.0000   0.0000  -0.5323
  -5.750  -0.1204   0.01815   0.00953  -0.1096  0.7413  0.0378  -3.2536   0.0000   0.0000   0.0000  -0.6968
  -5.500  -0.0951   0.01772   0.00911  -0.1095  0.7387  0.0408  -3.0527   0.0000   0.0000   0.0000  -0.9455
  -5.250  -0.0694   0.01729   0.00862  -0.1093  0.7363  0.0440  -2.8606   0.0000   0.0000   0.0000  -1.3821
  -5.000  -0.0432   0.01691   0.00818  -0.1092  0.7341  0.0482  -2.6685   0.0000   0.0000   0.0000  -2.3616
  -4.750  -0.0167   0.01655   0.00777  -0.1091  0.7322  0.0534  -2.4763   0.0000   0.0000   0.0000  -6.4789
  -4.500   0.0094   0.01622   0.00743  -0.1090  0.7298  0.0597  -2.2898   0.0000   0.0000   0.0000  12.2299
  -4.250   0.0354   0.01591   0.00713  -0.1089  0.7270  0.0680  -2.1178   0.0000   0.0000   0.0000   3.4140
  -4.000   0.0618   0.01560   0.00683  -0.1088  0.7246  0.0798  -1.9534   0.0000   0.0000   0.0000   2.0561
  -3.750   0.0885   0.01529   0.00655  -0.1087  0.7225  0.0965  -1.7908   0.0000   0.0000   0.0000   1.5084
  -3.250   0.1414   0.01479   0.00620  -0.1086  0.7179  0.1492  -1.4812   0.0000   0.0000   0.0000   1.0346
  -3.000   0.1676   0.01455   0.00606  -0.1086  0.7153  0.1836  -1.3465   0.0000   0.0000   0.0000   0.9102
  -2.750   0.1942   0.01430   0.00594  -0.1086  0.7131  0.2247  -1.2224   0.0000   0.0000   0.0000   0.8187
  -2.500   0.2210   0.01407   0.00582  -0.1086  0.7113  0.2712  -1.1002   0.0000   0.0000   0.0000   0.7487
  -2.250   0.2474   0.01388   0.00578  -0.1085  0.7091  0.3197  -0.9889   0.0000   0.0000   0.0000   0.6944
  -2.000   0.2731   0.01375   0.00580  -0.1083  0.7060  0.3677  -0.8844   0.0000   0.0000   0.0000   0.6511
  -1.750   0.2995   0.01360   0.00576  -0.1081  0.7032  0.4127  -0.7810   0.0000   0.0000   0.0000   0.6145
  -1.500   0.3262   0.01344   0.00569  -0.1079  0.7010  0.4571  -0.7598   0.0000   0.0000   0.0000   0.5834
  -1.250   0.3526   0.01330   0.00567  -0.1077  0.6987  0.5028  -0.7752   0.0000   0.0000   0.0000   0.5572
  -1.000   0.3776   0.01322   0.00576  -0.1072  0.6955  0.5493  -0.7893   0.0000   0.0000   0.0000   0.5351
  -0.750   0.4034   0.01311   0.00578  -0.1068  0.6928  0.5971  -0.8043   0.0000   0.0000   0.0000   0.5153
  -0.500   0.4294   0.01299   0.00578  -0.1064  0.6907  0.6470  -0.8205   0.0000   0.0000   0.0000   0.4976
  -0.250   0.4557   0.01286   0.00576  -0.1059  0.6888  0.6984  -0.8379   0.0000   0.0000   0.0000   0.4818
   0.000   0.4796   0.01282   0.00591  -0.1050  0.6850  0.7502  -0.8534   0.0000   0.0000   0.0000   0.4680
   0.250   0.5058   0.01271   0.00593  -0.1045  0.6819  0.8080  -0.8706   0.0000   0.0000   0.0000   0.4550
   0.500   0.5397   0.01258   0.00590  -0.1054  0.6796  0.8735  -0.8922   0.0000   0.0000   0.0000   0.4434
   0.750   0.5912   0.01254   0.00588  -0.1103  0.6773  0.9433  -0.9227   0.0000   0.0000   0.0000   0.4343
   1.000   0.6369   0.01265   0.00598  -0.1144  0.6738  0.9989  -0.9521   0.0000   0.0000   0.0000   0.4270
   1.250   0.6630   0.01273   0.00600  -0.1142  0.6707  1.0001  -0.9713   0.0000   0.0000   0.0000   0.4193
   1.500   0.6897   0.01275   0.00595  -0.1141  0.6682  1.0001  -0.9912   0.0000   0.0000   0.0000   0.4120
   1.750   0.7136   0.01290   0.00608  -0.1135  0.6640  1.0001  -1.0088   0.0000   0.0000   0.0000   0.4054
   2.000   0.7389   0.01299   0.00615  -0.1131  0.6604  1.0001  -1.0287   0.0000   0.0000   0.0000   0.3991
   2.250   0.7658   0.01304   0.00614  -0.1130  0.6578  1.0001  -1.0509   0.0000   0.0000   0.0000   0.3932
   2.500   0.7904   0.01318   0.00628  -0.1125  0.6538  1.0001  -1.0715   0.0000   0.0000   0.0000   0.3877
   2.750   0.8158   0.01327   0.00637  -0.1122  0.6498  1.0001  -1.0928   0.0000   0.0000   0.0000   0.3826
   3.000   0.8433   0.01329   0.00634  -0.1121  0.6467  1.0001  -1.1181   0.0000   0.0000   0.0000   0.3777
   3.250   0.8672   0.01345   0.00654  -0.1115  0.6419  1.0001  -1.1410   0.0000   0.0000   0.0000   0.3731
   3.500   0.8933   0.01353   0.00661  -0.1113  0.6380  1.0001  -1.1700   0.0000   0.0000   0.0000   0.3687
   3.750   0.9200   0.01358   0.00665  -0.1111  0.6342  1.0001  -1.2025   0.0000   0.0000   0.0000   0.3646
   4.000   0.9439   0.01373   0.00683  -0.1105  0.6287  1.0001  -1.2352   0.0000   0.0000   0.0000   0.3606
   4.250   0.9714   0.01373   0.00681  -0.1105  0.6248  1.0001  -1.2722   0.0000   0.0000   0.0000   0.3570
   4.500   0.9943   0.01391   0.00706  -0.1097  0.6184  1.0001  -1.3054   0.0000   0.0000   0.0000   0.3533
   4.750   1.0211   0.01392   0.00706  -0.1095  0.6134  1.0001  -1.3422   0.0000   0.0000   0.0000   0.3499
   5.000   1.0443   0.01406   0.00724  -0.1088  0.6061  1.0001  -1.3762   0.0000   0.0000   0.0000   0.3465
   5.250   1.0688   0.01413   0.00735  -0.1083  0.5989  1.0001  -1.4115   0.0000   0.0000   0.0000   0.3432
   5.500   1.0945   0.01416   0.00737  -0.1079  0.5920  1.0001  -1.4514   0.0000   0.0000   0.0000   0.3402
   5.750   1.1174   0.01432   0.00757  -0.1071  0.5837  1.0001  -1.4891   0.0000   0.0000   0.0000   0.3371
   6.000   1.1406   0.01447   0.00778  -0.1064  0.5756  1.0001  -1.5273   0.0000   0.0000   0.0000   0.3342
   6.250   1.1641   0.01461   0.00795  -0.1057  0.5673  1.0001  -1.5660   0.0000   0.0000   0.0000   0.3314
   6.500   1.1875   0.01474   0.00810  -0.1050  0.5587  1.0001  -1.6062   0.0000   0.0000   0.0000   0.3286
   6.750   1.2102   0.01492   0.00831  -0.1041  0.5497  1.0001  -1.7179   0.0000   0.0000   0.0000   0.3260
   7.000   1.2318   0.01514   0.00857  -0.1032  0.5400  1.0001  -1.8333   0.0000   0.0000   0.0000   0.3233
   7.250   1.2528   0.01538   0.00885  -0.1021  0.5295  1.0001  -1.9497   0.0000   0.0000   0.0000   0.3207
   7.500   1.2732   0.01563   0.00912  -0.1009  0.5184  1.0001  -2.0670   0.0000   0.0000   0.0000   0.3181
   7.750   1.2927   0.01592   0.00942  -0.0996  0.5064  1.0001  -2.1920   0.0000   0.0000   0.0000   0.3155
   8.000   1.3097   0.01628   0.00979  -0.0979  0.4917  1.0001  -2.3128   0.0000   0.0000   0.0000   0.3128
   8.250   1.3242   0.01670   0.01018  -0.0958  0.4749  1.0001  -2.4291   0.0000   0.0000   0.0000   0.3100
   8.500   1.3344   0.01722   0.01066  -0.0929  0.4564  1.0001  -2.5353   0.0000   0.0000   0.0000   0.3069
   8.750   1.3425   0.01790   0.01127  -0.0899  0.4362  1.0001  -2.6367   0.0000   0.0000   0.0000   0.3039
   9.000   1.3487   0.01874   0.01204  -0.0869  0.4152  1.0001  -2.7335   0.0000   0.0000   0.0000   0.3009
   9.250   1.3529   0.01979   0.01301  -0.0839  0.3922  1.0001  -2.8251   0.0000   0.0000   0.0000   0.2981
   9.500   1.3554   0.02105   0.01418  -0.0810  0.3690  1.0001  -2.9120   0.0000   0.0000   0.0000   0.2954
   9.750   1.3567   0.02253   0.01557  -0.0783  0.3452  1.0001  -2.9952   0.0000   0.0000   0.0000   0.2928
  10.000   1.3574   0.02418   0.01711  -0.0758  0.3207  1.0001  -3.0768   0.0000   0.0000   0.0000   0.2905
  10.250   1.3566   0.02602   0.01883  -0.0733  0.2961  1.0001  -3.1537   0.0000   0.0000   0.0000   0.2882
  10.500   1.3561   0.02791   0.02062  -0.0710  0.2724  1.0001  -3.2315   0.0000   0.0000   0.0000   0.2861
  10.750   1.3562   0.02983   0.02245  -0.0688  0.2508  1.0001  -3.3111   0.0000   0.0000   0.0000   0.2840
  11.000   1.3566   0.03177   0.02431  -0.0668  0.2301  1.0001  -3.3920   0.0000   0.0000   0.0000   0.2820
  11.250   1.3571   0.03375   0.02622  -0.0649  0.2110  1.0001  -3.4732   0.0000   0.0000   0.0000   0.2801
  11.500   1.3579   0.03575   0.02815  -0.0631  0.1925  1.0001  -3.5556   0.0000   0.0000   0.0000   0.2783
  11.750   1.3595   0.03773   0.03009  -0.0615  0.1753  1.0001  -3.6401   0.0000   0.0000   0.0000   0.2765
  12.000   1.3606   0.03981   0.03211  -0.0599  0.1578  1.0001  -3.7231   0.0000   0.0000   0.0000   0.2748
  12.250   1.3614   0.04197   0.03422  -0.0584  0.1386  1.0001  -3.8114   0.0000   0.0000   0.0000   0.2732
  12.500   1.3603   0.04437   0.03653  -0.0569  0.1186  1.0001  -3.8932   0.0000   0.0000   0.0000   0.2717
  12.750   1.3587   0.04691   0.03897  -0.0555  0.0996  1.0001  -3.9725   0.0000   0.0000   0.0000   0.2702
  13.000   1.3579   0.04943   0.04144  -0.0542  0.0848  1.0001  -4.0541   0.0000   0.0000   0.0000   0.2688
  13.250   1.3577   0.05197   0.04394  -0.0531  0.0739  1.0001  -4.1376   0.0000   0.0000   0.0000   0.2674
  13.500   1.3588   0.05444   0.04642  -0.0521  0.0653  1.0001  -4.2255   0.0000   0.0000   0.0000   0.2662
  13.750   1.3597   0.05698   0.04898  -0.0512  0.0583  1.0001  -4.3120   0.0000   0.0000   0.0000   0.2650
  14.000   1.3607   0.05958   0.05161  -0.0504  0.0525  1.0001  -4.3982   0.0000   0.0000   0.0000   0.2638
  14.250   1.3618   0.06222   0.05431  -0.0497  0.0473  1.0001  -4.4843   0.0000   0.0000   0.0000   0.2628
  14.500   1.3627   0.06494   0.05708  -0.0491  0.0429  1.0001  -4.5686   0.0000   0.0000   0.0000   0.2618
  14.750   1.3636   0.06771   0.05992  -0.0486  0.0392  1.0001  -4.6523   0.0000   0.0000   0.0000   0.2609
  15.000   1.3642   0.07057   0.06285  -0.0482  0.0362  1.0001  -4.7355   0.0000   0.0000   0.0000   0.2600
  15.250   1.3635   0.07364   0.06598  -0.0478  0.0340  1.0001  -4.8207   0.0000   0.0000   0.0000   0.2592
  15.500   1.3633   0.07669   0.06912  -0.0476  0.0319  1.0001  -4.9068   0.0000   0.0000   0.0000   0.2585
  16.000   1.3603   0.08328   0.07590  -0.0474  0.0292  1.0001  -5.0647   0.0000   0.0000   0.0000   0.2574
  16.250   1.3585   0.08670   0.07941  -0.0475  0.0281  1.0001  -5.1410   0.0000   0.0000   0.0000   0.2569
  16.500   1.3556   0.09030   0.08310  -0.0477  0.0273  1.0001  -5.2120   0.0000   0.0000   0.0000   0.2566
  16.750   1.3520   0.09405   0.08693  -0.0480  0.0266  1.0001  -5.2777   0.0000   0.0000   0.0000   0.2564
  17.000   1.3502   0.09759   0.09060  -0.0484  0.0259  1.0001  -5.3532   0.0000   0.0000   0.0000   0.2561
  17.250   1.3480   0.10122   0.09433  -0.0489  0.0252  1.0001  -5.4305   0.0000   0.0000   0.0000   0.2560
  17.500   1.3457   0.10488   0.09810  -0.0495  0.0246  1.0001  -5.5067   0.0000   0.0000   0.0000   0.2559
  17.750   1.3433   0.10859   0.10189  -0.0502  0.0241  1.0001  -5.5822   0.0000   0.0000   0.0000   0.2559
  18.000   1.3406   0.11236   0.10572  -0.0510  0.0236  1.0001  -5.6562   0.0000   0.0000   0.0000   0.2560
  18.250   1.3387   0.11602   0.10945  -0.0519  0.0231  1.0001  -5.7317   0.0000   0.0000   0.0000   0.2561
  18.500   1.3389   0.11939   0.11294  -0.0527  0.0226  1.0001  -5.8152   0.0000   0.0000   0.0000   0.2561
  18.750   1.3390   0.12277   0.11644  -0.0536  0.0221  1.0001  -5.8987   0.0000   0.0000   0.0000   0.2562
  19.000   1.3392   0.12616   0.11992  -0.0547  0.0215  1.0001  -5.9852   0.0000   0.0000   0.0000   0.2564
  19.250   1.3395   0.12953   0.12338  -0.0558  0.0211  1.0001  -6.0962   0.0000   0.0000   0.0000   0.2566
  19.500   1.3402   0.13287   0.12678  -0.0570  0.0207  1.0001  -6.2114   0.0000   0.0000   0.0000   0.2568
  19.750   1.3413   0.13608   0.13005  -0.0582  0.0203  1.0001  -6.3306   0.0000   0.0000   0.0000   0.2571
  20.000   1.3436   0.13899   0.13298  -0.0593  0.0200  1.0001  -6.4588   0.0000   0.0000   0.0000   0.2571


