xflr5 v6.61

 Calculated polar for: QX0026 v32

 1 1 Reynolds number fixed          Mach number fixed         

 xtrf =   1.000 (top)        1.000 (bottom)
 Mach =   0.000     Re =     0.560 e 6     Ncrit =   5.000

  alpha     CL        CD       CDp       Cm    Top Xtr Bot Xtr   Cpmin    Chinge    XCp    
 ------- -------- --------- --------- -------- ------- ------- -------- --------- ---------
 -10.000  -0.5717   0.01951   0.01341  -0.1077  0.7317  0.0103  -7.9184   0.0000   0.0000   0.0000   0.0449
  -9.750  -0.5480   0.01882   0.01261  -0.1075  0.7294  0.0106  -7.6244   0.0000   0.0000   0.0000   0.0371
  -9.500  -0.5240   0.01816   0.01184  -0.1073  0.7272  0.0110  -7.3333   0.0000   0.0000   0.0000   0.0284
  -9.250  -0.4995   0.01756   0.01112  -0.1072  0.7250  0.0113  -7.0429   0.0000   0.0000   0.0000   0.0187
  -9.000  -0.4754   0.01691   0.01039  -0.1070  0.7229  0.0118  -6.7565   0.0000   0.0000   0.0000   0.0081
  -8.750  -0.4503   0.01642   0.00981  -0.1069  0.7210  0.0123  -6.4770   0.0000   0.0000   0.0000  -0.0044
  -8.500  -0.4245   0.01596   0.00929  -0.1068  0.7189  0.0128  -6.2057   0.0000   0.0000   0.0000  -0.0188
  -8.250  -0.3986   0.01551   0.00877  -0.1067  0.7168  0.0135  -5.9415   0.0000   0.0000   0.0000  -0.0353
  -8.000  -0.3725   0.01510   0.00828  -0.1067  0.7148  0.0141  -5.6810   0.0000   0.0000   0.0000  -0.0543
  -7.750  -0.3465   0.01467   0.00779  -0.1066  0.7129  0.0149  -5.4196   0.0000   0.0000   0.0000  -0.0760
  -7.500  -0.3200   0.01434   0.00741  -0.1066  0.7112  0.0159  -5.1548   0.0000   0.0000   0.0000  -0.1021
  -7.250  -0.2932   0.01401   0.00702  -0.1066  0.7093  0.0169  -4.8995   0.0000   0.0000   0.0000  -0.1331
  -7.000  -0.2665   0.01365   0.00661  -0.1065  0.7072  0.0178  -4.6514   0.0000   0.0000   0.0000  -0.1704
  -6.750  -0.2396   0.01332   0.00625  -0.1066  0.7052  0.0189  -4.4021   0.0000   0.0000   0.0000  -0.2165
  -6.500  -0.2125   0.01304   0.00592  -0.1066  0.7033  0.0201  -4.1585   0.0000   0.0000   0.0000  -0.2749
  -6.250  -0.1854   0.01275   0.00558  -0.1066  0.7016  0.0214  -3.9198   0.0000   0.0000   0.0000  -0.3503
  -6.000  -0.1581   0.01250   0.00529  -0.1066  0.7000  0.0231  -3.6822   0.0000   0.0000   0.0000  -0.4524
  -5.750  -0.1306   0.01226   0.00501  -0.1067  0.6981  0.0247  -3.4522   0.0000   0.0000   0.0000  -0.5991
  -5.500  -0.1033   0.01199   0.00473  -0.1067  0.6959  0.0267  -3.2258   0.0000   0.0000   0.0000  -0.8218
  -5.250  -0.0756   0.01177   0.00447  -0.1068  0.6937  0.0289  -3.0049   0.0000   0.0000   0.0000  -1.2112
  -5.000  -0.0481   0.01153   0.00422  -0.1068  0.6916  0.0314  -2.7889   0.0000   0.0000   0.0000  -2.0417
  -4.750  -0.0205   0.01133   0.00398  -0.1068  0.6897  0.0342  -2.5783   0.0000   0.0000   0.0000  -5.1277
  -4.500   0.0073   0.01114   0.00377  -0.1069  0.6879  0.0379  -2.3719   0.0000   0.0000   0.0000  15.2434
  -4.250   0.0352   0.01095   0.00359  -0.1070  0.6858  0.0425  -2.1712   0.0000   0.0000   0.0000   3.3749
  -4.000   0.0630   0.01076   0.00341  -0.1071  0.6837  0.0480  -1.9879   0.0000   0.0000   0.0000   1.9923
  -3.750   0.0908   0.01057   0.00323  -0.1072  0.6817  0.0561  -1.8142   0.0000   0.0000   0.0000   1.4580
  -3.500   0.1186   0.01039   0.00307  -0.1073  0.6799  0.0668  -1.6452   0.0000   0.0000   0.0000   1.1736
  -3.250   0.1464   0.01022   0.00293  -0.1074  0.6783  0.0814  -1.4842   0.0000   0.0000   0.0000   0.9976
  -3.000   0.1742   0.01003   0.00281  -0.1075  0.6762  0.1003  -1.3467   0.0000   0.0000   0.0000   0.8779
  -2.750   0.2020   0.00984   0.00270  -0.1076  0.6737  0.1237  -1.2178   0.0000   0.0000   0.0000   0.7912
  -2.500   0.2297   0.00967   0.00260  -0.1077  0.6712  0.1487  -1.0921   0.0000   0.0000   0.0000   0.7253
  -2.250   0.2575   0.00951   0.00250  -0.1078  0.6690  0.1759  -0.9772   0.0000   0.0000   0.0000   0.6737
  -2.000   0.2852   0.00935   0.00242  -0.1079  0.6670  0.2075  -0.8681   0.0000   0.0000   0.0000   0.6321
  -1.750   0.3128   0.00916   0.00238  -0.1080  0.6645  0.2485  -0.7621   0.0000   0.0000   0.0000   0.5981
  -1.500   0.3404   0.00899   0.00233  -0.1081  0.6621  0.2887  -0.7776   0.0000   0.0000   0.0000   0.5695
  -1.250   0.3681   0.00884   0.00230  -0.1082  0.6597  0.3319  -0.7938   0.0000   0.0000   0.0000   0.5452
  -1.000   0.3959   0.00873   0.00226  -0.1083  0.6574  0.3692  -0.8101   0.0000   0.0000   0.0000   0.5241
  -0.750   0.4236   0.00861   0.00225  -0.1084  0.6547  0.4057  -0.8263   0.0000   0.0000   0.0000   0.5059
  -0.500   0.4514   0.00851   0.00225  -0.1085  0.6518  0.4400  -0.8425   0.0000   0.0000   0.0000   0.4898
  -0.250   0.4790   0.00840   0.00224  -0.1086  0.6492  0.4777  -0.8593   0.0000   0.0000   0.0000   0.4756
   0.000   0.5067   0.00832   0.00223  -0.1086  0.6469  0.5139  -0.8774   0.0000   0.0000   0.0000   0.4628
   0.250   0.5342   0.00823   0.00226  -0.1086  0.6441  0.5515  -0.8954   0.0000   0.0000   0.0000   0.4514
   0.500   0.5613   0.00813   0.00229  -0.1085  0.6408  0.5960  -0.9133   0.0000   0.0000   0.0000   0.4411
   1.000   0.6152   0.00796   0.00234  -0.1083  0.6353  0.6836  -0.9492   0.0000   0.0000   0.0000   0.4230
   1.250   0.6415   0.00786   0.00241  -0.1080  0.6318  0.7340  -0.9687   0.0000   0.0000   0.0000   0.4150
   1.500   0.6674   0.00776   0.00246  -0.1075  0.6283  0.7848  -0.9881   0.0000   0.0000   0.0000   0.4075
   1.750   0.6932   0.00767   0.00249  -0.1070  0.6251  0.8341  -1.0075   0.0000   0.0000   0.0000   0.4005
   2.000   0.7218   0.00755   0.00256  -0.1071  0.6213  0.8972  -1.0284   0.0000   0.0000   0.0000   0.3941
   2.250   0.7786   0.00754   0.00262  -0.1135  0.6171  0.9676  -1.0672   0.0000   0.0000   0.0000   0.3913
   2.500   0.8194   0.00761   0.00266  -0.1165  0.6132  0.9997  -1.0977   0.0000   0.0000   0.0000   0.3874
   2.750   0.8459   0.00767   0.00272  -0.1164  0.6085  1.0001  -1.1199   0.0000   0.0000   0.0000   0.3824
   3.000   0.8719   0.00774   0.00276  -0.1160  0.6039  1.0001  -1.1437   0.0000   0.0000   0.0000   0.3777
   3.250   0.8979   0.00781   0.00283  -0.1158  0.5986  1.0001  -1.1684   0.0000   0.0000   0.0000   0.3732
   3.500   0.9236   0.00790   0.00289  -0.1154  0.5929  1.0001  -1.1977   0.0000   0.0000   0.0000   0.3690
   3.750   0.9494   0.00798   0.00297  -0.1151  0.5856  1.0001  -1.2316   0.0000   0.0000   0.0000   0.3649
   4.000   0.9749   0.00808   0.00305  -0.1147  0.5778  1.0001  -1.2670   0.0000   0.0000   0.0000   0.3611
   4.250   1.0003   0.00819   0.00314  -0.1143  0.5697  1.0001  -1.3025   0.0000   0.0000   0.0000   0.3574
   4.500   1.0255   0.00831   0.00324  -0.1139  0.5609  1.0001  -1.3380   0.0000   0.0000   0.0000   0.3539
   4.750   1.0505   0.00844   0.00336  -0.1135  0.5517  1.0001  -1.3736   0.0000   0.0000   0.0000   0.3505
   5.000   1.0753   0.00859   0.00349  -0.1131  0.5423  1.0001  -1.4092   0.0000   0.0000   0.0000   0.3473
   5.250   1.1001   0.00875   0.00364  -0.1126  0.5333  1.0001  -1.4473   0.0000   0.0000   0.0000   0.3442
   5.500   1.1245   0.00892   0.00379  -0.1121  0.5236  1.0001  -1.4864   0.0000   0.0000   0.0000   0.3412
   5.750   1.1483   0.00912   0.00398  -0.1115  0.5130  1.0001  -1.5253   0.0000   0.0000   0.0000   0.3383
   6.000   1.1717   0.00934   0.00417  -0.1108  0.5021  1.0001  -1.5641   0.0000   0.0000   0.0000   0.3354
   6.250   1.1946   0.00958   0.00439  -0.1100  0.4895  1.0001  -1.6037   0.0000   0.0000   0.0000   0.3326
   6.750   1.2350   0.01027   0.00496  -0.1076  0.4547  1.0001  -1.7967   0.0000   0.0000   0.0000   0.3270
   7.000   1.2542   0.01065   0.00529  -0.1062  0.4370  1.0001  -1.9088   0.0000   0.0000   0.0000   0.3242
   7.250   1.2714   0.01111   0.00567  -0.1045  0.4185  1.0001  -2.0249   0.0000   0.0000   0.0000   0.3214
   7.500   1.2855   0.01168   0.00614  -0.1024  0.3926  1.0001  -2.1362   0.0000   0.0000   0.0000   0.3184
   7.750   1.2944   0.01238   0.00670  -0.0993  0.3649  1.0001  -2.2356   0.0000   0.0000   0.0000   0.3151
   8.000   1.2988   0.01322   0.00738  -0.0955  0.3350  1.0001  -2.3242   0.0000   0.0000   0.0000   0.3116
   8.250   1.3026   0.01422   0.00823  -0.0920  0.3043  1.0001  -2.4114   0.0000   0.0000   0.0000   0.3083
   8.500   1.3071   0.01532   0.00920  -0.0890  0.2762  1.0001  -2.5012   0.0000   0.0000   0.0000   0.3053
   8.750   1.3120   0.01656   0.01031  -0.0863  0.2508  1.0001  -2.5922   0.0000   0.0000   0.0000   0.3026
   9.000   1.3172   0.01793   0.01156  -0.0840  0.2265  1.0001  -2.6846   0.0000   0.0000   0.0000   0.3002
   9.250   1.3243   0.01927   0.01281  -0.0821  0.2057  1.0001  -2.7833   0.0000   0.0000   0.0000   0.2979
   9.500   1.3331   0.02055   0.01402  -0.0805  0.1894  1.0001  -2.8877   0.0000   0.0000   0.0000   0.2959
   9.750   1.3419   0.02184   0.01526  -0.0789  0.1739  1.0001  -2.9935   0.0000   0.0000   0.0000   0.2939
  10.000   1.3503   0.02319   0.01655  -0.0773  0.1582  1.0001  -3.0988   0.0000   0.0000   0.0000   0.2919
  10.250   1.3579   0.02460   0.01790  -0.0757  0.1423  1.0001  -3.2026   0.0000   0.0000   0.0000   0.2899
  10.500   1.3632   0.02618   0.01939  -0.0739  0.1237  1.0001  -3.3001   0.0000   0.0000   0.0000   0.2880
  10.750   1.3661   0.02795   0.02106  -0.0720  0.1030  1.0001  -3.3900   0.0000   0.0000   0.0000   0.2860
  11.000   1.3683   0.02979   0.02281  -0.0701  0.0850  1.0001  -3.4782   0.0000   0.0000   0.0000   0.2840
  11.250   1.3720   0.03155   0.02451  -0.0684  0.0717  1.0001  -3.5717   0.0000   0.0000   0.0000   0.2822
  11.500   1.3774   0.03320   0.02613  -0.0668  0.0622  1.0001  -3.6712   0.0000   0.0000   0.0000   0.2804
  11.750   1.3837   0.03480   0.02772  -0.0654  0.0547  1.0001  -3.7747   0.0000   0.0000   0.0000   0.2787
  12.000   1.3905   0.03640   0.02932  -0.0641  0.0486  1.0001  -3.8864   0.0000   0.0000   0.0000   0.2770
  12.250   1.3977   0.03801   0.03093  -0.0629  0.0428  1.0001  -4.0026   0.0000   0.0000   0.0000   0.2754
  12.500   1.4045   0.03968   0.03262  -0.0617  0.0369  1.0001  -4.1185   0.0000   0.0000   0.0000   0.2739
  12.750   1.4107   0.04145   0.03439  -0.0606  0.0318  1.0001  -4.2332   0.0000   0.0000   0.0000   0.2724
  13.000   1.4170   0.04324   0.03619  -0.0595  0.0280  1.0001  -4.3483   0.0000   0.0000   0.0000   0.2710
  13.250   1.4233   0.04507   0.03805  -0.0585  0.0253  1.0001  -4.4642   0.0000   0.0000   0.0000   0.2696
  13.500   1.4290   0.04701   0.04002  -0.0576  0.0233  1.0001  -4.5781   0.0000   0.0000   0.0000   0.2682
  13.750   1.4359   0.04884   0.04191  -0.0567  0.0216  1.0001  -4.6972   0.0000   0.0000   0.0000   0.2669
  14.000   1.4412   0.05086   0.04397  -0.0558  0.0203  1.0001  -4.8111   0.0000   0.0000   0.0000   0.2657
  14.250   1.4473   0.05286   0.04603  -0.0551  0.0193  1.0001  -4.9275   0.0000   0.0000   0.0000   0.2644
  14.500   1.4530   0.05491   0.04814  -0.0544  0.0184  1.0001  -5.0436   0.0000   0.0000   0.0000   0.2633
  14.750   1.4577   0.05709   0.05039  -0.0537  0.0176  1.0001  -5.1625   0.0000   0.0000   0.0000   0.2621
  15.250   1.4658   0.06171   0.05513  -0.0524  0.0164  1.0001  -5.4023   0.0000   0.0000   0.0000   0.2600
  15.500   1.4699   0.06406   0.05756  -0.0519  0.0159  1.0001  -5.5237   0.0000   0.0000   0.0000   0.2590
  15.750   1.4732   0.06652   0.06009  -0.0515  0.0154  1.0001  -5.6422   0.0000   0.0000   0.0000   0.2581
  16.000   1.4757   0.06912   0.06277  -0.0511  0.0150  1.0001  -5.7567   0.0000   0.0000   0.0000   0.2572
  16.250   1.4771   0.07188   0.06559  -0.0508  0.0147  1.0001  -5.8667   0.0000   0.0000   0.0000   0.2564
  16.500   1.4775   0.07482   0.06861  -0.0505  0.0144  1.0001  -5.9789   0.0000   0.0000   0.0000   0.2556
  16.750   1.4763   0.07798   0.07184  -0.0503  0.0141  1.0001  -6.0821   0.0000   0.0000   0.0000   0.2549
  17.000   1.4768   0.08097   0.07492  -0.0502  0.0139  1.0001  -6.1946   0.0000   0.0000   0.0000   0.2543
  17.250   1.4767   0.08408   0.07813  -0.0502  0.0137  1.0001  -6.3033   0.0000   0.0000   0.0000   0.2537
  17.500   1.4758   0.08733   0.08147  -0.0503  0.0135  1.0001  -6.4080   0.0000   0.0000   0.0000   0.2532
  17.750   1.4744   0.09069   0.08493  -0.0505  0.0133  1.0001  -6.5086   0.0000   0.0000   0.0000   0.2527
  18.000   1.4724   0.09416   0.08848  -0.0508  0.0131  1.0001  -6.6058   0.0000   0.0000   0.0000   0.2524
  18.250   1.4701   0.09770   0.09212  -0.0512  0.0129  1.0001  -6.7082   0.0000   0.0000   0.0000   0.2521
  18.500   1.4676   0.10132   0.09583  -0.0517  0.0127  1.0001  -6.8272   0.0000   0.0000   0.0000   0.2519
  18.750   1.4647   0.10503   0.09963  -0.0523  0.0125  1.0001  -6.9429   0.0000   0.0000   0.0000   0.2517
  19.000   1.4612   0.10886   0.10354  -0.0531  0.0123  1.0001  -7.0529   0.0000   0.0000   0.0000   0.2517
  19.250   1.4571   0.11282   0.10759  -0.0540  0.0121  1.0001  -7.1567   0.0000   0.0000   0.0000   0.2518
  19.500   1.4524   0.11691   0.11177  -0.0550  0.0120  1.0001  -7.2542   0.0000   0.0000   0.0000   0.2520
  19.750   1.4472   0.12113   0.11607  -0.0563  0.0118  1.0001  -7.3449   0.0000   0.0000   0.0000   0.2524
  20.000   1.4415   0.12545   0.12048  -0.0576  0.0117  1.0001  -7.4291   0.0000   0.0000   0.0000   0.2528


