xflr5 v6.61

 Calculated polar for: QX0026 v32

 1 1 Reynolds number fixed          Mach number fixed         

 xtrf =   1.000 (top)        1.000 (bottom)
 Mach =   0.000     Re =     0.320 e 6     Ncrit =   5.000

  alpha     CL        CD       CDp       Cm    Top Xtr Bot Xtr   Cpmin    Chinge    XCp    
 ------- -------- --------- --------- -------- ------- ------- -------- --------- ---------
 -10.000  -0.5356   0.02645   0.02042  -0.1104  0.7563  0.0128  -7.2603   0.0000   0.0000   0.0000   0.0263
  -9.750  -0.5169   0.02511   0.01886  -0.1102  0.7540  0.0133  -7.0477   0.0000   0.0000   0.0000   0.0195
  -9.500  -0.4973   0.02384   0.01734  -0.1098  0.7519  0.0137  -6.8350   0.0000   0.0000   0.0000   0.0117
  -9.250  -0.4762   0.02269   0.01594  -0.1095  0.7492  0.0143  -6.6155   0.0000   0.0000   0.0000   0.0025
  -9.000  -0.4538   0.02187   0.01507  -0.1094  0.7468  0.0148  -6.3458   0.0000   0.0000   0.0000  -0.0087
  -8.750  -0.4299   0.02126   0.01437  -0.1093  0.7445  0.0154  -6.0740   0.0000   0.0000   0.0000  -0.0220
  -8.500  -0.4060   0.02059   0.01355  -0.1091  0.7425  0.0163  -5.8372   0.0000   0.0000   0.0000  -0.0368
  -8.250  -0.3820   0.01982   0.01262  -0.1089  0.7401  0.0172  -5.6226   0.0000   0.0000   0.0000  -0.0534
  -8.000  -0.3580   0.01909   0.01181  -0.1087  0.7376  0.0179  -5.3964   0.0000   0.0000   0.0000  -0.0724
  -7.750  -0.3332   0.01853   0.01117  -0.1086  0.7354  0.0186  -5.1571   0.0000   0.0000   0.0000  -0.0952
  -7.500  -0.3080   0.01797   0.01051  -0.1085  0.7334  0.0196  -4.9288   0.0000   0.0000   0.0000  -0.1219
  -7.250  -0.2825   0.01744   0.00982  -0.1083  0.7318  0.0208  -4.7081   0.0000   0.0000   0.0000  -0.1539
  -7.000  -0.2570   0.01695   0.00932  -0.1082  0.7296  0.0220  -4.4696   0.0000   0.0000   0.0000  -0.1927
  -6.750  -0.2309   0.01653   0.00883  -0.1082  0.7272  0.0236  -4.2391   0.0000   0.0000   0.0000  -0.2412
  -6.500  -0.2051   0.01607   0.00828  -0.1080  0.7250  0.0250  -4.0204   0.0000   0.0000   0.0000  -0.3013
  -6.250  -0.1789   0.01567   0.00783  -0.1080  0.7231  0.0266  -3.7943   0.0000   0.0000   0.0000  -0.3804
  -6.000  -0.1522   0.01532   0.00738  -0.1079  0.7215  0.0287  -3.5761   0.0000   0.0000   0.0000  -0.4890
  -5.750  -0.1258   0.01494   0.00700  -0.1079  0.7196  0.0307  -3.3574   0.0000   0.0000   0.0000  -0.6415
  -5.500  -0.0991   0.01462   0.00661  -0.1078  0.7172  0.0331  -3.1477   0.0000   0.0000   0.0000  -0.8793
  -5.250  -0.0724   0.01428   0.00627  -0.1078  0.7150  0.0358  -2.9367   0.0000   0.0000   0.0000  -1.2917
  -5.000  -0.0454   0.01398   0.00593  -0.1078  0.7130  0.0391  -2.7310   0.0000   0.0000   0.0000  -2.2008
  -4.750  -0.0182   0.01372   0.00560  -0.1078  0.7111  0.0430  -2.5295   0.0000   0.0000   0.0000  -5.8473
  -4.500   0.0089   0.01346   0.00531  -0.1078  0.7090  0.0478  -2.3319   0.0000   0.0000   0.0000  12.7110
  -4.250   0.0359   0.01320   0.00508  -0.1078  0.7064  0.0541  -2.1423   0.0000   0.0000   0.0000   3.3326
  -4.000   0.0631   0.01295   0.00485  -0.1078  0.7041  0.0628  -1.9701   0.0000   0.0000   0.0000   2.0011
  -3.750   0.0904   0.01272   0.00462  -0.1078  0.7021  0.0747  -1.8014   0.0000   0.0000   0.0000   1.4703
  -3.500   0.1179   0.01249   0.00442  -0.1079  0.7004  0.0917  -1.6363   0.0000   0.0000   0.0000   1.1851
  -3.250   0.1451   0.01226   0.00426  -0.1079  0.6983  0.1137  -1.4801   0.0000   0.0000   0.0000   1.0087
  -3.000   0.1722   0.01204   0.00414  -0.1080  0.6958  0.1402  -1.3438   0.0000   0.0000   0.0000   0.8884
  -2.750   0.1994   0.01184   0.00402  -0.1080  0.6937  0.1696  -1.2172   0.0000   0.0000   0.0000   0.8004
  -2.500   0.2268   0.01163   0.00391  -0.1081  0.6917  0.2042  -1.0933   0.0000   0.0000   0.0000   0.7335
  -2.250   0.2541   0.01141   0.00379  -0.1081  0.6898  0.2461  -0.9800   0.0000   0.0000   0.0000   0.6810
  -2.000   0.2811   0.01122   0.00374  -0.1082  0.6872  0.2906  -0.8727   0.0000   0.0000   0.0000   0.6389
  -1.750   0.3080   0.01105   0.00371  -0.1081  0.6843  0.3359  -0.7681   0.0000   0.0000   0.0000   0.6041
  -1.500   0.3353   0.01091   0.00367  -0.1082  0.6819  0.3793  -0.7709   0.0000   0.0000   0.0000   0.5747
  -1.250   0.3627   0.01077   0.00362  -0.1082  0.6799  0.4191  -0.7870   0.0000   0.0000   0.0000   0.5496
  -1.000   0.3901   0.01065   0.00359  -0.1082  0.6781  0.4597  -0.8030   0.0000   0.0000   0.0000   0.5280
  -0.750   0.4167   0.01054   0.00362  -0.1080  0.6752  0.5011  -0.8183   0.0000   0.0000   0.0000   0.5094
  -0.500   0.4434   0.01042   0.00364  -0.1079  0.6723  0.5445  -0.8339   0.0000   0.0000   0.0000   0.4929
  -0.250   0.4703   0.01031   0.00362  -0.1077  0.6697  0.5875  -0.8512   0.0000   0.0000   0.0000   0.4781
   0.000   0.4971   0.01019   0.00361  -0.1075  0.6675  0.6358  -0.8689   0.0000   0.0000   0.0000   0.4649
   0.250   0.5228   0.01010   0.00369  -0.1071  0.6642  0.6820  -0.8857   0.0000   0.0000   0.0000   0.4531
   0.500   0.5486   0.01000   0.00375  -0.1066  0.6613  0.7314  -0.9028   0.0000   0.0000   0.0000   0.4422
   0.750   0.5742   0.00988   0.00377  -0.1060  0.6588  0.7854  -0.9199   0.0000   0.0000   0.0000   0.4321
   1.000   0.6007   0.00975   0.00378  -0.1055  0.6562  0.8433  -0.9383   0.0000   0.0000   0.0000   0.4228
   1.500   0.6927   0.00966   0.00385  -0.1133  0.6493  0.9752  -0.9988   0.0000   0.0000   0.0000   0.4101
   1.750   0.7311   0.00972   0.00386  -0.1157  0.6467  1.0001  -1.0251   0.0000   0.0000   0.0000   0.4045
   2.000   0.7565   0.00979   0.00393  -0.1154  0.6431  1.0001  -1.0445   0.0000   0.0000   0.0000   0.3984
   2.250   0.7823   0.00986   0.00397  -0.1150  0.6392  1.0001  -1.0660   0.0000   0.0000   0.0000   0.3926
   2.500   0.8087   0.00991   0.00397  -0.1148  0.6360  1.0001  -1.0883   0.0000   0.0000   0.0000   0.3873
   2.750   0.8343   0.01000   0.00408  -0.1145  0.6318  1.0001  -1.1097   0.0000   0.0000   0.0000   0.3822
   3.000   0.8603   0.01007   0.00414  -0.1142  0.6277  1.0001  -1.1336   0.0000   0.0000   0.0000   0.3774
   3.250   0.8867   0.01014   0.00418  -0.1140  0.6239  1.0001  -1.1585   0.0000   0.0000   0.0000   0.3729
   3.500   0.9121   0.01023   0.00430  -0.1137  0.6186  1.0001  -1.1874   0.0000   0.0000   0.0000   0.3687
   3.750   0.9385   0.01029   0.00434  -0.1134  0.6142  1.0001  -1.2208   0.0000   0.0000   0.0000   0.3646
   4.000   0.9638   0.01039   0.00446  -0.1131  0.6084  1.0001  -1.2554   0.0000   0.0000   0.0000   0.3608
   4.250   0.9898   0.01046   0.00451  -0.1128  0.6029  1.0001  -1.2914   0.0000   0.0000   0.0000   0.3571
   4.500   1.0148   0.01055   0.00462  -0.1123  0.5954  1.0001  -1.3266   0.0000   0.0000   0.0000   0.3535
   4.750   1.0399   0.01065   0.00472  -0.1119  0.5878  1.0001  -1.3622   0.0000   0.0000   0.0000   0.3501
   5.000   1.0649   0.01075   0.00482  -0.1114  0.5804  1.0001  -1.3979   0.0000   0.0000   0.0000   0.3468
   5.250   1.0896   0.01088   0.00497  -0.1110  0.5723  1.0001  -1.4347   0.0000   0.0000   0.0000   0.3437
   5.500   1.1140   0.01101   0.00511  -0.1104  0.5636  1.0001  -1.4738   0.0000   0.0000   0.0000   0.3407
   5.750   1.1382   0.01116   0.00527  -0.1099  0.5548  1.0001  -1.5129   0.0000   0.0000   0.0000   0.3378
   6.000   1.1621   0.01133   0.00545  -0.1093  0.5461  1.0001  -1.5520   0.0000   0.0000   0.0000   0.3349
   6.250   1.1856   0.01152   0.00564  -0.1086  0.5370  1.0001  -1.5916   0.0000   0.0000   0.0000   0.3322
   6.500   1.2085   0.01173   0.00586  -0.1078  0.5266  1.0001  -1.6609   0.0000   0.0000   0.0000   0.3294
   6.750   1.2307   0.01197   0.00610  -0.1069  0.5156  1.0001  -1.7770   0.0000   0.0000   0.0000   0.3268
   7.000   1.2520   0.01224   0.00636  -0.1059  0.5036  1.0001  -1.8935   0.0000   0.0000   0.0000   0.3241
   7.250   1.2715   0.01256   0.00666  -0.1046  0.4880  1.0001  -2.0083   0.0000   0.0000   0.0000   0.3214
   7.500   1.2888   0.01296   0.00701  -0.1029  0.4708  1.0001  -2.1275   0.0000   0.0000   0.0000   0.3186
   7.750   1.3041   0.01342   0.00742  -0.1009  0.4524  1.0001  -2.2434   0.0000   0.0000   0.0000   0.3158
   8.000   1.3169   0.01396   0.00790  -0.0985  0.4323  1.0001  -2.3546   0.0000   0.0000   0.0000   0.3128
   8.250   1.3251   0.01458   0.00845  -0.0953  0.4121  1.0001  -2.4546   0.0000   0.0000   0.0000   0.3096
   8.500   1.3303   0.01540   0.00918  -0.0919  0.3886  1.0001  -2.5473   0.0000   0.0000   0.0000   0.3063
   8.750   1.3330   0.01646   0.01012  -0.0884  0.3627  1.0001  -2.6337   0.0000   0.0000   0.0000   0.3032
   9.000   1.3337   0.01780   0.01133  -0.0851  0.3352  1.0001  -2.7140   0.0000   0.0000   0.0000   0.3002
   9.250   1.3346   0.01933   0.01273  -0.0823  0.3070  1.0001  -2.7949   0.0000   0.0000   0.0000   0.2976
   9.500   1.3356   0.02103   0.01430  -0.0798  0.2804  1.0001  -2.8760   0.0000   0.0000   0.0000   0.2952
   9.750   1.3366   0.02281   0.01595  -0.0774  0.2553  1.0001  -2.9575   0.0000   0.0000   0.0000   0.2930
  10.000   1.3395   0.02452   0.01757  -0.0754  0.2324  1.0001  -3.0448   0.0000   0.0000   0.0000   0.2909
  10.250   1.3433   0.02620   0.01917  -0.0735  0.2131  1.0001  -3.1356   0.0000   0.0000   0.0000   0.2888
  10.500   1.3477   0.02785   0.02075  -0.0717  0.1951  1.0001  -3.2288   0.0000   0.0000   0.0000   0.2869
  10.750   1.3526   0.02949   0.02234  -0.0700  0.1791  1.0001  -3.3240   0.0000   0.0000   0.0000   0.2850
  11.000   1.3576   0.03113   0.02394  -0.0684  0.1632  1.0001  -3.4203   0.0000   0.0000   0.0000   0.2831
  11.250   1.3618   0.03287   0.02562  -0.0667  0.1468  1.0001  -3.5142   0.0000   0.0000   0.0000   0.2813
  11.500   1.3644   0.03474   0.02742  -0.0651  0.1282  1.0001  -3.6032   0.0000   0.0000   0.0000   0.2795
  11.750   1.3654   0.03678   0.02937  -0.0633  0.1087  1.0001  -3.6872   0.0000   0.0000   0.0000   0.2777
  12.000   1.3657   0.03894   0.03144  -0.0617  0.0913  1.0001  -3.7691   0.0000   0.0000   0.0000   0.2760
  12.250   1.3672   0.04106   0.03351  -0.0602  0.0776  1.0001  -3.8616   0.0000   0.0000   0.0000   0.2744
  12.500   1.3699   0.04315   0.03557  -0.0588  0.0677  1.0001  -3.9584   0.0000   0.0000   0.0000   0.2728
  12.750   1.3736   0.04519   0.03762  -0.0576  0.0593  1.0001  -4.0596   0.0000   0.0000   0.0000   0.2713
  13.000   1.3773   0.04730   0.03973  -0.0565  0.0526  1.0001  -4.1606   0.0000   0.0000   0.0000   0.2699
  13.250   1.3818   0.04935   0.04181  -0.0556  0.0464  1.0001  -4.2652   0.0000   0.0000   0.0000   0.2686
  13.500   1.3861   0.05148   0.04396  -0.0546  0.0407  1.0001  -4.3690   0.0000   0.0000   0.0000   0.2673
  13.750   1.3899   0.05370   0.04620  -0.0538  0.0359  1.0001  -4.4711   0.0000   0.0000   0.0000   0.2661
  14.000   1.3935   0.05598   0.04852  -0.0530  0.0323  1.0001  -4.5723   0.0000   0.0000   0.0000   0.2649
  14.250   1.3967   0.05834   0.05092  -0.0523  0.0296  1.0001  -4.6716   0.0000   0.0000   0.0000   0.2637
  14.500   1.3995   0.06078   0.05342  -0.0516  0.0275  1.0001  -4.7694   0.0000   0.0000   0.0000   0.2626
  14.750   1.4021   0.06331   0.05602  -0.0510  0.0259  1.0001  -4.8654   0.0000   0.0000   0.0000   0.2616
  15.000   1.4043   0.06591   0.05869  -0.0505  0.0246  1.0001  -4.9672   0.0000   0.0000   0.0000   0.2607
  15.250   1.4049   0.06873   0.06158  -0.0500  0.0235  1.0001  -5.0643   0.0000   0.0000   0.0000   0.2598
  15.500   1.4062   0.07154   0.06448  -0.0496  0.0227  1.0001  -5.1627   0.0000   0.0000   0.0000   0.2589
  15.750   1.4073   0.07440   0.06744  -0.0494  0.0219  1.0001  -5.2604   0.0000   0.0000   0.0000   0.2581
  16.000   1.4074   0.07742   0.07055  -0.0492  0.0212  1.0001  -5.3541   0.0000   0.0000   0.0000   0.2574
  16.250   1.4064   0.08064   0.07384  -0.0490  0.0206  1.0001  -5.4423   0.0000   0.0000   0.0000   0.2568
  16.500   1.4037   0.08412   0.07741  -0.0491  0.0201  1.0001  -5.5218   0.0000   0.0000   0.0000   0.2563
  16.750   1.4028   0.08742   0.08081  -0.0492  0.0196  1.0001  -5.6123   0.0000   0.0000   0.0000   0.2559
  17.000   1.4019   0.09073   0.08423  -0.0493  0.0191  1.0001  -5.7070   0.0000   0.0000   0.0000   0.2554
  17.250   1.4005   0.09416   0.08776  -0.0496  0.0186  1.0001  -5.7988   0.0000   0.0000   0.0000   0.2551
  17.500   1.3987   0.09770   0.09140  -0.0500  0.0182  1.0001  -5.8877   0.0000   0.0000   0.0000   0.2548
  17.750   1.3964   0.10134   0.09513  -0.0505  0.0178  1.0001  -5.9736   0.0000   0.0000   0.0000   0.2547
  18.000   1.3935   0.10509   0.09897  -0.0512  0.0175  1.0001  -6.0551   0.0000   0.0000   0.0000   0.2546
  18.250   1.3899   0.10897   0.10293  -0.0519  0.0173  1.0001  -6.1307   0.0000   0.0000   0.0000   0.2547
  18.500   1.3857   0.11297   0.10702  -0.0528  0.0170  1.0001  -6.2008   0.0000   0.0000   0.0000   0.2548
  18.750   1.3830   0.11680   0.11094  -0.0538  0.0168  1.0001  -6.2764   0.0000   0.0000   0.0000   0.2550
  19.000   1.3816   0.12045   0.11469  -0.0548  0.0165  1.0001  -6.3820   0.0000   0.0000   0.0000   0.2551
  19.250   1.3802   0.12411   0.11846  -0.0559  0.0163  1.0001  -6.4892   0.0000   0.0000   0.0000   0.2553
  19.500   1.3789   0.12778   0.12222  -0.0571  0.0161  1.0001  -6.5959   0.0000   0.0000   0.0000   0.2556
  19.750   1.3778   0.13142   0.12596  -0.0584  0.0158  1.0001  -6.7039   0.0000   0.0000   0.0000   0.2559
  20.000   1.3770   0.13506   0.12969  -0.0598  0.0155  1.0001  -6.8129   0.0000   0.0000   0.0000   0.2563


