xflr5 v6.61

 Calculated polar for: QX0026 v32

 1 1 Reynolds number fixed          Mach number fixed         

 xtrf =   1.000 (top)        1.000 (bottom)
 Mach =   0.000     Re =     0.460 e 6     Ncrit =   5.000

  alpha     CL        CD       CDp       Cm    Top Xtr Bot Xtr   Cpmin    Chinge    XCp    
 ------- -------- --------- --------- -------- ------- ------- -------- --------- ---------
 -10.000  -0.5616   0.02140   0.01523  -0.1085  0.7396  0.0111  -7.7474   0.0000   0.0000   0.0000   0.0399
  -9.750  -0.5392   0.02055   0.01421  -0.1082  0.7371  0.0114  -7.4788   0.0000   0.0000   0.0000   0.0323
  -9.500  -0.5170   0.01968   0.01326  -0.1080  0.7350  0.0118  -7.2038   0.0000   0.0000   0.0000   0.0241
  -9.250  -0.4931   0.01904   0.01252  -0.1079  0.7330  0.0122  -6.9129   0.0000   0.0000   0.0000   0.0143
  -9.000  -0.4687   0.01845   0.01183  -0.1077  0.7311  0.0127  -6.6250   0.0000   0.0000   0.0000   0.0031
  -8.750  -0.4440   0.01785   0.01115  -0.1076  0.7286  0.0132  -6.3590   0.0000   0.0000   0.0000  -0.0096
  -8.500  -0.4191   0.01728   0.01046  -0.1074  0.7263  0.0139  -6.1092   0.0000   0.0000   0.0000  -0.0239
  -8.250  -0.3940   0.01673   0.00982  -0.1073  0.7242  0.0145  -5.8577   0.0000   0.0000   0.0000  -0.0401
  -8.000  -0.3684   0.01630   0.00932  -0.1073  0.7224  0.0153  -5.5916   0.0000   0.0000   0.0000  -0.0593
  -7.750  -0.3423   0.01591   0.00885  -0.1072  0.7208  0.0162  -5.3332   0.0000   0.0000   0.0000  -0.0818
  -7.500  -0.3161   0.01548   0.00835  -0.1071  0.7186  0.0172  -5.0870   0.0000   0.0000   0.0000  -0.1082
  -7.250  -0.2901   0.01502   0.00784  -0.1071  0.7164  0.0181  -4.8426   0.0000   0.0000   0.0000  -0.1390
  -7.000  -0.2637   0.01466   0.00743  -0.1070  0.7143  0.0190  -4.5953   0.0000   0.0000   0.0000  -0.1768
  -6.750  -0.2370   0.01432   0.00701  -0.1070  0.7124  0.0203  -4.3551   0.0000   0.0000   0.0000  -0.2236
  -6.500  -0.2104   0.01397   0.00660  -0.1070  0.7108  0.0216  -4.1173   0.0000   0.0000   0.0000  -0.2821
  -6.250  -0.1833   0.01368   0.00628  -0.1070  0.7090  0.0232  -3.8791   0.0000   0.0000   0.0000  -0.3593
  -6.000  -0.1562   0.01338   0.00593  -0.1070  0.7069  0.0248  -3.6507   0.0000   0.0000   0.0000  -0.4636
  -5.750  -0.1292   0.01307   0.00560  -0.1070  0.7049  0.0266  -3.4232   0.0000   0.0000   0.0000  -0.6107
  -5.500  -0.1019   0.01282   0.00530  -0.1070  0.7028  0.0288  -3.2013   0.0000   0.0000   0.0000  -0.8400
  -5.250  -0.0747   0.01254   0.00499  -0.1070  0.7010  0.0311  -2.9837   0.0000   0.0000   0.0000  -1.2335
  -5.000  -0.0472   0.01231   0.00471  -0.1071  0.6992  0.0337  -2.7715   0.0000   0.0000   0.0000  -2.0919
  -4.750  -0.0197   0.01208   0.00448  -0.1071  0.6967  0.0371  -2.5626   0.0000   0.0000   0.0000  -5.3486
  -4.500   0.0078   0.01185   0.00424  -0.1072  0.6944  0.0411  -2.3593   0.0000   0.0000   0.0000  14.4220
  -4.250   0.0354   0.01163   0.00402  -0.1072  0.6924  0.0459  -2.1612   0.0000   0.0000   0.0000   3.3602
  -4.000   0.0631   0.01144   0.00382  -0.1073  0.6906  0.0527  -1.9821   0.0000   0.0000   0.0000   1.9927
  -3.750   0.0908   0.01125   0.00362  -0.1074  0.6890  0.0619  -1.8098   0.0000   0.0000   0.0000   1.4596
  -3.500   0.1184   0.01104   0.00347  -0.1074  0.6867  0.0743  -1.6424   0.0000   0.0000   0.0000   1.1766
  -3.250   0.1461   0.01084   0.00333  -0.1075  0.6845  0.0914  -1.4829   0.0000   0.0000   0.0000   1.0006
  -3.000   0.1737   0.01064   0.00319  -0.1076  0.6825  0.1135  -1.3455   0.0000   0.0000   0.0000   0.8807
  -2.750   0.2013   0.01045   0.00307  -0.1077  0.6806  0.1384  -1.2172   0.0000   0.0000   0.0000   0.7935
  -2.500   0.2290   0.01028   0.00295  -0.1078  0.6787  0.1655  -1.0919   0.0000   0.0000   0.0000   0.7273
  -2.250   0.2566   0.01010   0.00287  -0.1079  0.6761  0.1966  -0.9778   0.0000   0.0000   0.0000   0.6756
  -2.000   0.2840   0.00990   0.00281  -0.1080  0.6734  0.2354  -0.8695   0.0000   0.0000   0.0000   0.6341
  -1.750   0.3114   0.00972   0.00275  -0.1081  0.6711  0.2782  -0.7638   0.0000   0.0000   0.0000   0.5998
  -1.500   0.3390   0.00956   0.00269  -0.1081  0.6690  0.3207  -0.7758   0.0000   0.0000   0.0000   0.5710
  -1.250   0.3666   0.00943   0.00266  -0.1082  0.6671  0.3631  -0.7920   0.0000   0.0000   0.0000   0.5464
  -1.000   0.3942   0.00931   0.00266  -0.1083  0.6643  0.3991  -0.8080   0.0000   0.0000   0.0000   0.5253
  -0.750   0.4217   0.00919   0.00264  -0.1083  0.6615  0.4363  -0.8241   0.0000   0.0000   0.0000   0.5069
  -0.500   0.4492   0.00908   0.00262  -0.1083  0.6588  0.4740  -0.8402   0.0000   0.0000   0.0000   0.4906
  -0.250   0.4767   0.00898   0.00261  -0.1083  0.6566  0.5142  -0.8572   0.0000   0.0000   0.0000   0.4763
   0.000   0.5040   0.00888   0.00264  -0.1083  0.6537  0.5520  -0.8749   0.0000   0.0000   0.0000   0.4635
   0.250   0.5310   0.00878   0.00267  -0.1082  0.6508  0.5968  -0.8927   0.0000   0.0000   0.0000   0.4520
   0.500   0.5579   0.00868   0.00268  -0.1081  0.6481  0.6411  -0.9104   0.0000   0.0000   0.0000   0.4415
   0.750   0.5846   0.00859   0.00270  -0.1078  0.6454  0.6863  -0.9282   0.0000   0.0000   0.0000   0.4319
   1.250   0.6362   0.00837   0.00282  -0.1069  0.6389  0.7895  -0.9650   0.0000   0.0000   0.0000   0.4148
   1.500   0.6622   0.00827   0.00284  -0.1064  0.6362  0.8422  -0.9845   0.0000   0.0000   0.0000   0.4071
   1.750   0.6949   0.00816   0.00291  -0.1073  0.6327  0.9078  -1.0076   0.0000   0.0000   0.0000   0.4006
   2.000   0.7520   0.00816   0.00295  -0.1138  0.6286  0.9747  -1.0442   0.0000   0.0000   0.0000   0.3972
   2.250   0.7903   0.00823   0.00298  -0.1163  0.6253  1.0001  -1.0732   0.0000   0.0000   0.0000   0.3926
   2.500   0.8163   0.00830   0.00304  -0.1160  0.6212  1.0001  -1.0949   0.0000   0.0000   0.0000   0.3873
   2.750   0.8423   0.00836   0.00310  -0.1157  0.6168  1.0001  -1.1169   0.0000   0.0000   0.0000   0.3823
   3.000   0.8684   0.00843   0.00314  -0.1154  0.6127  1.0001  -1.1407   0.0000   0.0000   0.0000   0.3776
   3.250   0.8944   0.00850   0.00321  -0.1152  0.6075  1.0001  -1.1654   0.0000   0.0000   0.0000   0.3731
   3.500   0.9204   0.00858   0.00327  -0.1149  0.6028  1.0001  -1.1949   0.0000   0.0000   0.0000   0.3688
   3.750   0.9462   0.00866   0.00335  -0.1146  0.5965  1.0001  -1.2283   0.0000   0.0000   0.0000   0.3648
   4.000   0.9718   0.00875   0.00342  -0.1142  0.5898  1.0001  -1.2638   0.0000   0.0000   0.0000   0.3609
   4.250   0.9971   0.00885   0.00351  -0.1138  0.5821  1.0001  -1.2992   0.0000   0.0000   0.0000   0.3573
   4.500   1.0225   0.00895   0.00362  -0.1135  0.5738  1.0001  -1.3349   0.0000   0.0000   0.0000   0.3537
   4.750   1.0478   0.00907   0.00373  -0.1131  0.5656  1.0001  -1.3706   0.0000   0.0000   0.0000   0.3504
   5.000   1.0726   0.00920   0.00385  -0.1126  0.5568  1.0001  -1.4062   0.0000   0.0000   0.0000   0.3471
   5.250   1.0971   0.00936   0.00398  -0.1121  0.5478  1.0001  -1.4437   0.0000   0.0000   0.0000   0.3440
   5.500   1.1216   0.00952   0.00414  -0.1116  0.5387  1.0001  -1.4829   0.0000   0.0000   0.0000   0.3410
   6.000   1.1695   0.00989   0.00450  -0.1104  0.5186  1.0001  -1.5611   0.0000   0.0000   0.0000   0.3353
   6.250   1.1925   0.01012   0.00471  -0.1097  0.5077  1.0001  -1.6006   0.0000   0.0000   0.0000   0.3325
   6.500   1.2147   0.01037   0.00495  -0.1088  0.4956  1.0001  -1.6813   0.0000   0.0000   0.0000   0.3297
   6.750   1.2355   0.01068   0.00522  -0.1077  0.4795  1.0001  -1.7949   0.0000   0.0000   0.0000   0.3270
   7.000   1.2539   0.01108   0.00555  -0.1061  0.4618  1.0001  -1.9052   0.0000   0.0000   0.0000   0.3241
   7.250   1.2723   0.01147   0.00590  -0.1047  0.4437  1.0001  -2.0221   0.0000   0.0000   0.0000   0.3214
   7.500   1.2883   0.01195   0.00631  -0.1028  0.4243  1.0001  -2.1382   0.0000   0.0000   0.0000   0.3185
   7.750   1.3009   0.01254   0.00681  -0.1003  0.4008  1.0001  -2.2474   0.0000   0.0000   0.0000   0.3155
   8.000   1.3071   0.01327   0.00741  -0.0968  0.3759  1.0001  -2.3409   0.0000   0.0000   0.0000   0.3121
   8.250   1.3113   0.01416   0.00817  -0.0932  0.3469  1.0001  -2.4300   0.0000   0.0000   0.0000   0.3087
   8.500   1.3138   0.01527   0.00913  -0.0897  0.3169  1.0001  -2.5145   0.0000   0.0000   0.0000   0.3055
   8.750   1.3160   0.01659   0.01031  -0.0866  0.2880  1.0001  -2.5982   0.0000   0.0000   0.0000   0.3026
   9.000   1.3193   0.01802   0.01161  -0.0840  0.2613  1.0001  -2.6851   0.0000   0.0000   0.0000   0.3001
   9.250   1.3235   0.01954   0.01301  -0.0818  0.2362  1.0001  -2.7748   0.0000   0.0000   0.0000   0.2977
   9.500   1.3288   0.02105   0.01441  -0.0798  0.2147  1.0001  -2.8688   0.0000   0.0000   0.0000   0.2956
   9.750   1.3364   0.02243   0.01572  -0.0781  0.1974  1.0001  -2.9703   0.0000   0.0000   0.0000   0.2935
  10.000   1.3438   0.02385   0.01709  -0.0765  0.1819  1.0001  -3.0719   0.0000   0.0000   0.0000   0.2915
  10.250   1.3516   0.02524   0.01844  -0.0749  0.1662  1.0001  -3.1758   0.0000   0.0000   0.0000   0.2896
  10.500   1.3582   0.02673   0.01987  -0.0733  0.1506  1.0001  -3.2771   0.0000   0.0000   0.0000   0.2877
  10.750   1.3636   0.02833   0.02139  -0.0716  0.1330  1.0001  -3.3748   0.0000   0.0000   0.0000   0.2857
  11.000   1.3668   0.03010   0.02307  -0.0698  0.1136  1.0001  -3.4661   0.0000   0.0000   0.0000   0.2838
  11.250   1.3682   0.03203   0.02491  -0.0679  0.0942  1.0001  -3.5516   0.0000   0.0000   0.0000   0.2819
  11.500   1.3703   0.03393   0.02674  -0.0661  0.0788  1.0001  -3.6393   0.0000   0.0000   0.0000   0.2801
  11.750   1.3739   0.03576   0.02853  -0.0645  0.0679  1.0001  -3.7327   0.0000   0.0000   0.0000   0.2783
  12.000   1.3789   0.03752   0.03027  -0.0631  0.0592  1.0001  -3.8349   0.0000   0.0000   0.0000   0.2766
  12.250   1.3843   0.03930   0.03204  -0.0618  0.0524  1.0001  -3.9435   0.0000   0.0000   0.0000   0.2751
  12.500   1.3908   0.04102   0.03378  -0.0607  0.0462  1.0001  -4.0569   0.0000   0.0000   0.0000   0.2735
  12.750   1.3970   0.04282   0.03558  -0.0596  0.0402  1.0001  -4.1697   0.0000   0.0000   0.0000   0.2721
  13.000   1.4025   0.04471   0.03748  -0.0585  0.0349  1.0001  -4.2805   0.0000   0.0000   0.0000   0.2706
  13.500   1.4133   0.04862   0.04144  -0.0565  0.0276  1.0001  -4.5029   0.0000   0.0000   0.0000   0.2679
  13.750   1.4187   0.05063   0.04350  -0.0557  0.0253  1.0001  -4.6139   0.0000   0.0000   0.0000   0.2666
  14.000   1.4231   0.05278   0.04569  -0.0548  0.0235  1.0001  -4.7219   0.0000   0.0000   0.0000   0.2654
  14.250   1.4286   0.05487   0.04784  -0.0541  0.0221  1.0001  -4.8337   0.0000   0.0000   0.0000   0.2642
  14.500   1.4330   0.05708   0.05011  -0.0534  0.0209  1.0001  -4.9421   0.0000   0.0000   0.0000   0.2631
  15.000   1.4403   0.06178   0.05495  -0.0521  0.0193  1.0001  -5.1653   0.0000   0.0000   0.0000   0.2609
  15.250   1.4441   0.06419   0.05744  -0.0516  0.0185  1.0001  -5.2809   0.0000   0.0000   0.0000   0.2599
  15.500   1.4468   0.06674   0.06006  -0.0511  0.0179  1.0001  -5.3930   0.0000   0.0000   0.0000   0.2590
  15.750   1.4483   0.06946   0.06284  -0.0507  0.0173  1.0001  -5.5002   0.0000   0.0000   0.0000   0.2581
  16.000   1.4486   0.07237   0.06583  -0.0504  0.0169  1.0001  -5.6011   0.0000   0.0000   0.0000   0.2573
  16.250   1.4507   0.07512   0.06867  -0.0501  0.0164  1.0001  -5.7097   0.0000   0.0000   0.0000   0.2565
  16.500   1.4517   0.07802   0.07166  -0.0500  0.0160  1.0001  -5.8177   0.0000   0.0000   0.0000   0.2558
  16.750   1.4520   0.08106   0.07479  -0.0499  0.0157  1.0001  -5.9258   0.0000   0.0000   0.0000   0.2552
  17.000   1.4516   0.08422   0.07804  -0.0499  0.0154  1.0001  -6.0307   0.0000   0.0000   0.0000   0.2546
  17.250   1.4506   0.08750   0.08141  -0.0500  0.0151  1.0001  -6.1323   0.0000   0.0000   0.0000   0.2541
  17.500   1.4488   0.09092   0.08492  -0.0502  0.0149  1.0001  -6.2290   0.0000   0.0000   0.0000   0.2537
  17.750   1.4462   0.09449   0.08858  -0.0505  0.0146  1.0001  -6.3200   0.0000   0.0000   0.0000   0.2534
  18.000   1.4427   0.09824   0.09241  -0.0509  0.0144  1.0001  -6.4048   0.0000   0.0000   0.0000   0.2532
  18.250   1.4380   0.10220   0.09646  -0.0515  0.0142  1.0001  -6.4808   0.0000   0.0000   0.0000   0.2531
  18.500   1.4337   0.10615   0.10050  -0.0522  0.0140  1.0001  -6.5623   0.0000   0.0000   0.0000   0.2531
  18.750   1.4311   0.10988   0.10433  -0.0530  0.0139  1.0001  -6.6731   0.0000   0.0000   0.0000   0.2531
  19.000   1.4284   0.11365   0.10821  -0.0538  0.0137  1.0001  -6.7823   0.0000   0.0000   0.0000   0.2531
  19.250   1.4257   0.11747   0.11213  -0.0548  0.0135  1.0001  -6.8901   0.0000   0.0000   0.0000   0.2533
  19.500   1.4230   0.12133   0.11608  -0.0560  0.0133  1.0001  -6.9963   0.0000   0.0000   0.0000   0.2535
  19.750   1.4203   0.12522   0.12007  -0.0572  0.0131  1.0001  -7.1009   0.0000   0.0000   0.0000   0.2538
  20.000   1.4175   0.12912   0.12406  -0.0585  0.0129  1.0001  -7.2037   0.0000   0.0000   0.0000   0.2542


