xflr5 v6.61

 Calculated polar for: QX0026 v32

 1 1 Reynolds number fixed          Mach number fixed         

 xtrf =   1.000 (top)        1.000 (bottom)
 Mach =   0.000     Re =     0.580 e 6     Ncrit =   5.000

  alpha     CL        CD       CDp       Cm    Top Xtr Bot Xtr   Cpmin    Chinge    XCp    
 ------- -------- --------- --------- -------- ------- ------- -------- --------- ---------
 -10.000  -0.5733   0.01918   0.01309  -0.1075  0.7303  0.0101  -7.9490   0.0000   0.0000   0.0000   0.0457
  -9.750  -0.5495   0.01852   0.01233  -0.1074  0.7280  0.0105  -7.6502   0.0000   0.0000   0.0000   0.0379
  -9.500  -0.5253   0.01789   0.01160  -0.1072  0.7258  0.0109  -7.3553   0.0000   0.0000   0.0000   0.0292
  -9.250  -0.5007   0.01731   0.01089  -0.1070  0.7237  0.0112  -7.0626   0.0000   0.0000   0.0000   0.0194
  -9.000  -0.4763   0.01671   0.01019  -0.1069  0.7217  0.0116  -6.7746   0.0000   0.0000   0.0000   0.0088
  -8.750  -0.4512   0.01618   0.00960  -0.1067  0.7197  0.0121  -6.4966   0.0000   0.0000   0.0000  -0.0036
  -8.500  -0.4254   0.01573   0.00909  -0.1067  0.7175  0.0127  -6.2226   0.0000   0.0000   0.0000  -0.0181
  -8.250  -0.3994   0.01530   0.00860  -0.1066  0.7154  0.0133  -5.9555   0.0000   0.0000   0.0000  -0.0345
  -8.000  -0.3732   0.01490   0.00811  -0.1066  0.7136  0.0140  -5.6935   0.0000   0.0000   0.0000  -0.0534
  -7.750  -0.3472   0.01449   0.00763  -0.1065  0.7118  0.0147  -5.4332   0.0000   0.0000   0.0000  -0.0751
  -7.500  -0.3206   0.01415   0.00725  -0.1065  0.7101  0.0156  -5.1674   0.0000   0.0000   0.0000  -0.1010
  -7.250  -0.2937   0.01383   0.00688  -0.1065  0.7079  0.0166  -4.9090   0.0000   0.0000   0.0000  -0.1322
  -7.000  -0.2668   0.01350   0.00649  -0.1065  0.7058  0.0176  -4.6593   0.0000   0.0000   0.0000  -0.1696
  -6.750  -0.2401   0.01316   0.00613  -0.1065  0.7039  0.0186  -4.4101   0.0000   0.0000   0.0000  -0.2153
  -6.500  -0.2129   0.01288   0.00580  -0.1065  0.7021  0.0198  -4.1653   0.0000   0.0000   0.0000  -0.2735
  -6.250  -0.1857   0.01262   0.00548  -0.1065  0.7005  0.0211  -3.9259   0.0000   0.0000   0.0000  -0.3490
  -6.000  -0.1584   0.01235   0.00518  -0.1065  0.6989  0.0228  -3.6879   0.0000   0.0000   0.0000  -0.4507
  -5.750  -0.1308   0.01212   0.00491  -0.1066  0.6968  0.0244  -3.4564   0.0000   0.0000   0.0000  -0.5972
  -5.500  -0.1035   0.01185   0.00464  -0.1067  0.6946  0.0264  -3.2301   0.0000   0.0000   0.0000  -0.8193
  -5.250  -0.0758   0.01164   0.00438  -0.1067  0.6925  0.0286  -3.0081   0.0000   0.0000   0.0000  -1.2075
  -5.000  -0.0483   0.01140   0.00413  -0.1067  0.6905  0.0310  -2.7919   0.0000   0.0000   0.0000  -2.0325
  -4.750  -0.0206   0.01121   0.00390  -0.1068  0.6887  0.0337  -2.5808   0.0000   0.0000   0.0000  -5.0994
  -4.500   0.0073   0.01102   0.00371  -0.1069  0.6866  0.0375  -2.3739   0.0000   0.0000   0.0000  15.3674
  -4.250   0.0351   0.01082   0.00352  -0.1070  0.6845  0.0419  -2.1729   0.0000   0.0000   0.0000   3.3800
  -4.000   0.0630   0.01064   0.00334  -0.1071  0.6825  0.0473  -1.9888   0.0000   0.0000   0.0000   1.9929
  -3.750   0.0908   0.01046   0.00316  -0.1072  0.6806  0.0551  -1.8149   0.0000   0.0000   0.0000   1.4576
  -3.500   0.1187   0.01029   0.00301  -0.1073  0.6789  0.0655  -1.6457   0.0000   0.0000   0.0000   1.1731
  -3.250   0.1465   0.01011   0.00287  -0.1074  0.6771  0.0797  -1.4845   0.0000   0.0000   0.0000   0.9971
  -3.000   0.1743   0.00993   0.00275  -0.1075  0.6748  0.0982  -1.3469   0.0000   0.0000   0.0000   0.8775
  -2.750   0.2021   0.00974   0.00265  -0.1076  0.6724  0.1214  -1.2179   0.0000   0.0000   0.0000   0.7908
  -2.500   0.2298   0.00957   0.00254  -0.1077  0.6700  0.1459  -1.0922   0.0000   0.0000   0.0000   0.7250
  -2.250   0.2576   0.00941   0.00244  -0.1078  0.6680  0.1724  -0.9771   0.0000   0.0000   0.0000   0.6734
  -2.000   0.2854   0.00925   0.00237  -0.1079  0.6657  0.2032  -0.8679   0.0000   0.0000   0.0000   0.6319
  -1.750   0.3130   0.00906   0.00232  -0.1080  0.6632  0.2433  -0.7619   0.0000   0.0000   0.0000   0.5979
  -1.500   0.3407   0.00890   0.00227  -0.1081  0.6608  0.2836  -0.7779   0.0000   0.0000   0.0000   0.5693
  -1.250   0.3683   0.00875   0.00223  -0.1082  0.6586  0.3265  -0.7941   0.0000   0.0000   0.0000   0.5450
  -1.000   0.3961   0.00863   0.00220  -0.1083  0.6563  0.3646  -0.8104   0.0000   0.0000   0.0000   0.5240
  -0.750   0.4239   0.00851   0.00220  -0.1084  0.6533  0.4002  -0.8266   0.0000   0.0000   0.0000   0.5057
  -0.500   0.4517   0.00841   0.00219  -0.1085  0.6505  0.4343  -0.8429   0.0000   0.0000   0.0000   0.4897
  -0.250   0.4794   0.00831   0.00218  -0.1086  0.6481  0.4714  -0.8597   0.0000   0.0000   0.0000   0.4754
   0.000   0.5071   0.00823   0.00217  -0.1086  0.6458  0.5074  -0.8778   0.0000   0.0000   0.0000   0.4627
   0.250   0.5347   0.00814   0.00220  -0.1087  0.6427  0.5438  -0.8958   0.0000   0.0000   0.0000   0.4514
   0.500   0.5619   0.00804   0.00222  -0.1086  0.6395  0.5879  -0.9137   0.0000   0.0000   0.0000   0.4410
   0.750   0.5891   0.00796   0.00224  -0.1085  0.6367  0.6297  -0.9317   0.0000   0.0000   0.0000   0.4316
   1.000   0.6160   0.00788   0.00228  -0.1084  0.6339  0.6748  -0.9497   0.0000   0.0000   0.0000   0.4230
   1.500   0.6683   0.00768   0.00239  -0.1077  0.6270  0.7754  -0.9887   0.0000   0.0000   0.0000   0.4075
   1.750   0.6942   0.00759   0.00243  -0.1072  0.6238  0.8238  -1.0081   0.0000   0.0000   0.0000   0.4005
   2.000   0.7210   0.00747   0.00250  -0.1069  0.6198  0.8814  -1.0281   0.0000   0.0000   0.0000   0.3941
   2.250   0.7729   0.00743   0.00256  -0.1122  0.6158  0.9559  -1.0641   0.0000   0.0000   0.0000   0.3907
   2.500   0.8172   0.00749   0.00261  -0.1160  0.6117  0.9965  -1.0965   0.0000   0.0000   0.0000   0.3871
   2.750   0.8465   0.00756   0.00266  -0.1165  0.6070  1.0001  -1.1204   0.0000   0.0000   0.0000   0.3825
   3.000   0.8724   0.00763   0.00271  -0.1161  0.6025  1.0001  -1.1441   0.0000   0.0000   0.0000   0.3777
   3.250   0.8985   0.00770   0.00277  -0.1159  0.5969  1.0001  -1.1689   0.0000   0.0000   0.0000   0.3733
   3.500   0.9242   0.00779   0.00283  -0.1155  0.5911  1.0001  -1.1982   0.0000   0.0000   0.0000   0.3690
   3.750   0.9499   0.00787   0.00291  -0.1152  0.5835  1.0001  -1.2321   0.0000   0.0000   0.0000   0.3650
   4.000   0.9755   0.00797   0.00299  -0.1148  0.5754  1.0001  -1.2676   0.0000   0.0000   0.0000   0.3611
   4.250   1.0009   0.00808   0.00309  -0.1145  0.5673  1.0001  -1.3031   0.0000   0.0000   0.0000   0.3575
   4.500   1.0259   0.00821   0.00319  -0.1140  0.5586  1.0001  -1.3385   0.0000   0.0000   0.0000   0.3539
   4.750   1.0507   0.00835   0.00330  -0.1135  0.5493  1.0001  -1.3739   0.0000   0.0000   0.0000   0.3505
   5.000   1.0757   0.00850   0.00344  -0.1131  0.5397  1.0001  -1.4096   0.0000   0.0000   0.0000   0.3473
   5.250   1.1006   0.00865   0.00358  -0.1127  0.5305  1.0001  -1.4478   0.0000   0.0000   0.0000   0.3442
   5.500   1.1249   0.00883   0.00374  -0.1122  0.5206  1.0001  -1.4869   0.0000   0.0000   0.0000   0.3412
   5.750   1.1487   0.00903   0.00392  -0.1115  0.5099  1.0001  -1.5258   0.0000   0.0000   0.0000   0.3383
   6.000   1.1721   0.00925   0.00412  -0.1109  0.4988  1.0001  -1.5645   0.0000   0.0000   0.0000   0.3354
   6.250   1.1947   0.00950   0.00434  -0.1101  0.4857  1.0001  -1.6040   0.0000   0.0000   0.0000   0.3326
   6.500   1.2154   0.00983   0.00461  -0.1089  0.4687  1.0001  -1.6861   0.0000   0.0000   0.0000   0.3298
   6.750   1.2348   0.01021   0.00493  -0.1076  0.4504  1.0001  -1.7966   0.0000   0.0000   0.0000   0.3269
   7.000   1.2542   0.01059   0.00525  -0.1062  0.4326  1.0001  -1.9092   0.0000   0.0000   0.0000   0.3242
   7.250   1.2715   0.01104   0.00563  -0.1046  0.4131  1.0001  -2.0260   0.0000   0.0000   0.0000   0.3214
   7.500   1.2843   0.01167   0.00613  -0.1022  0.3862  1.0001  -2.1340   0.0000   0.0000   0.0000   0.3183
   7.750   1.2933   0.01236   0.00669  -0.0991  0.3572  1.0001  -2.2335   0.0000   0.0000   0.0000   0.3150
   8.000   1.2976   0.01321   0.00738  -0.0954  0.3272  1.0001  -2.3219   0.0000   0.0000   0.0000   0.3115
   8.250   1.3015   0.01421   0.00823  -0.0919  0.2970  1.0001  -2.4095   0.0000   0.0000   0.0000   0.3082
   8.500   1.3064   0.01532   0.00920  -0.0889  0.2694  1.0001  -2.5000   0.0000   0.0000   0.0000   0.3053
   8.750   1.3115   0.01655   0.01031  -0.0863  0.2447  1.0001  -2.5918   0.0000   0.0000   0.0000   0.3026
   9.000   1.3175   0.01787   0.01152  -0.0841  0.2210  1.0001  -2.6863   0.0000   0.0000   0.0000   0.3002
   9.250   1.3249   0.01919   0.01275  -0.0822  0.2008  1.0001  -2.7859   0.0000   0.0000   0.0000   0.2980
   9.500   1.3342   0.02043   0.01393  -0.0806  0.1852  1.0001  -2.8922   0.0000   0.0000   0.0000   0.2959
   9.750   1.3432   0.02172   0.01515  -0.0790  0.1696  1.0001  -2.9986   0.0000   0.0000   0.0000   0.2939
  10.000   1.3515   0.02307   0.01645  -0.0775  0.1542  1.0001  -3.1037   0.0000   0.0000   0.0000   0.2919
  10.250   1.3589   0.02449   0.01781  -0.0758  0.1375  1.0001  -3.2070   0.0000   0.0000   0.0000   0.2900
  10.500   1.3636   0.02612   0.01934  -0.0740  0.1185  1.0001  -3.3024   0.0000   0.0000   0.0000   0.2880
  10.750   1.3661   0.02791   0.02103  -0.0720  0.0978  1.0001  -3.3911   0.0000   0.0000   0.0000   0.2860
  11.000   1.3687   0.02973   0.02275  -0.0702  0.0806  1.0001  -3.4806   0.0000   0.0000   0.0000   0.2841
  11.250   1.3730   0.03143   0.02442  -0.0685  0.0688  1.0001  -3.5762   0.0000   0.0000   0.0000   0.2822
  11.500   1.3791   0.03303   0.02599  -0.0670  0.0598  1.0001  -3.6785   0.0000   0.0000   0.0000   0.2804
  11.750   1.3855   0.03463   0.02757  -0.0656  0.0529  1.0001  -3.7821   0.0000   0.0000   0.0000   0.2787
  12.000   1.3929   0.03617   0.02913  -0.0643  0.0471  1.0001  -3.8967   0.0000   0.0000   0.0000   0.2771
  12.250   1.4003   0.03776   0.03072  -0.0631  0.0411  1.0001  -4.0140   0.0000   0.0000   0.0000   0.2755
  12.500   1.4067   0.03946   0.03243  -0.0619  0.0353  1.0001  -4.1289   0.0000   0.0000   0.0000   0.2740
  12.750   1.4129   0.04123   0.03419  -0.0608  0.0305  1.0001  -4.2436   0.0000   0.0000   0.0000   0.2725
  13.000   1.4194   0.04300   0.03598  -0.0597  0.0270  1.0001  -4.3596   0.0000   0.0000   0.0000   0.2710
  13.250   1.4261   0.04480   0.03781  -0.0587  0.0245  1.0001  -4.4772   0.0000   0.0000   0.0000   0.2696
  13.500   1.4324   0.04666   0.03971  -0.0578  0.0227  1.0001  -4.5939   0.0000   0.0000   0.0000   0.2683
  13.750   1.4390   0.04853   0.04163  -0.0569  0.0211  1.0001  -4.7121   0.0000   0.0000   0.0000   0.2670
  14.000   1.4444   0.05053   0.04368  -0.0560  0.0198  1.0001  -4.8264   0.0000   0.0000   0.0000   0.2657
  14.250   1.4510   0.05246   0.04567  -0.0553  0.0188  1.0001  -4.9457   0.0000   0.0000   0.0000   0.2645
  14.500   1.4566   0.05452   0.04779  -0.0545  0.0180  1.0001  -5.0621   0.0000   0.0000   0.0000   0.2633
  14.750   1.4610   0.05673   0.05005  -0.0538  0.0172  1.0001  -5.1804   0.0000   0.0000   0.0000   0.2622
  15.000   1.4654   0.05897   0.05235  -0.0532  0.0166  1.0001  -5.3021   0.0000   0.0000   0.0000   0.2611
  15.250   1.4702   0.06121   0.05467  -0.0526  0.0160  1.0001  -5.4264   0.0000   0.0000   0.0000   0.2600
  15.500   1.4744   0.06355   0.05708  -0.0521  0.0155  1.0001  -5.5486   0.0000   0.0000   0.0000   0.2590
  15.750   1.4776   0.06602   0.05961  -0.0516  0.0151  1.0001  -5.6673   0.0000   0.0000   0.0000   0.2581
  16.000   1.4798   0.06863   0.06230  -0.0512  0.0147  1.0001  -5.7813   0.0000   0.0000   0.0000   0.2572
  16.250   1.4809   0.07142   0.06516  -0.0509  0.0144  1.0001  -5.8901   0.0000   0.0000   0.0000   0.2563
  16.500   1.4806   0.07444   0.06824  -0.0506  0.0141  1.0001  -5.9986   0.0000   0.0000   0.0000   0.2556
  16.750   1.4819   0.07728   0.07118  -0.0504  0.0139  1.0001  -6.1160   0.0000   0.0000   0.0000   0.2548
  17.000   1.4824   0.08026   0.07424  -0.0503  0.0137  1.0001  -6.2291   0.0000   0.0000   0.0000   0.2542
  17.250   1.4822   0.08337   0.07744  -0.0503  0.0135  1.0001  -6.3384   0.0000   0.0000   0.0000   0.2536
  17.500   1.4814   0.08659   0.08076  -0.0503  0.0133  1.0001  -6.4441   0.0000   0.0000   0.0000   0.2530
  17.750   1.4801   0.08993   0.08420  -0.0505  0.0131  1.0001  -6.5464   0.0000   0.0000   0.0000   0.2526
  18.000   1.4782   0.09336   0.08771  -0.0508  0.0129  1.0001  -6.6457   0.0000   0.0000   0.0000   0.2522
  18.250   1.4760   0.09688   0.09132  -0.0511  0.0127  1.0001  -6.7537   0.0000   0.0000   0.0000   0.2519
  18.500   1.4734   0.10051   0.09504  -0.0516  0.0125  1.0001  -6.8727   0.0000   0.0000   0.0000   0.2517
  18.750   1.4701   0.10426   0.09888  -0.0522  0.0123  1.0001  -6.9866   0.0000   0.0000   0.0000   0.2516
  19.000   1.4661   0.10815   0.10285  -0.0530  0.0121  1.0001  -7.0938   0.0000   0.0000   0.0000   0.2515
  19.250   1.4613   0.11219   0.10698  -0.0539  0.0119  1.0001  -7.1932   0.0000   0.0000   0.0000   0.2516
  19.500   1.4557   0.11640   0.11128  -0.0550  0.0118  1.0001  -7.2842   0.0000   0.0000   0.0000   0.2519
  19.750   1.4496   0.12077   0.11572  -0.0562  0.0116  1.0001  -7.3671   0.0000   0.0000   0.0000   0.2523
  20.000   1.4442   0.12505   0.12010  -0.0576  0.0115  1.0001  -7.4531   0.0000   0.0000   0.0000   0.2527


