xflr5 v6.61

 Calculated polar for: QX0026 v32

 1 1 Reynolds number fixed          Mach number fixed         

 xtrf =   1.000 (top)        1.000 (bottom)
 Mach =   0.000     Re =     0.760 e 6     Ncrit =   5.000

  alpha     CL        CD       CDp       Cm    Top Xtr Bot Xtr   Cpmin    Chinge    XCp    
 ------- -------- --------- --------- -------- ------- ------- -------- --------- ---------
 -10.000  -0.5839   0.01708   0.01104  -0.1066  0.7204  0.0091  -8.1541   0.0000   0.0000   0.0000   0.0510
  -9.750  -0.5594   0.01649   0.01040  -0.1064  0.7183  0.0095  -7.8378   0.0000   0.0000   0.0000   0.0432
  -9.500  -0.5341   0.01600   0.00984  -0.1063  0.7160  0.0098  -7.5189   0.0000   0.0000   0.0000   0.0344
  -9.250  -0.5086   0.01555   0.00932  -0.1063  0.7137  0.0102  -7.2039   0.0000   0.0000   0.0000   0.0245
  -9.000  -0.4829   0.01512   0.00881  -0.1062  0.7117  0.0106  -6.8949   0.0000   0.0000   0.0000   0.0135
  -8.750  -0.4569   0.01471   0.00832  -0.1061  0.7101  0.0111  -6.6082   0.0000   0.0000   0.0000   0.0010
  -8.500  -0.4306   0.01432   0.00786  -0.1060  0.7082  0.0115  -6.3306   0.0000   0.0000   0.0000  -0.0133
  -8.250  -0.4046   0.01387   0.00738  -0.1060  0.7062  0.0121  -6.0570   0.0000   0.0000   0.0000  -0.0293
  -8.000  -0.3780   0.01352   0.00699  -0.1060  0.7042  0.0127  -5.7803   0.0000   0.0000   0.0000  -0.0481
  -7.750  -0.3512   0.01321   0.00662  -0.1060  0.7022  0.0134  -5.5091   0.0000   0.0000   0.0000  -0.0699
  -7.500  -0.3242   0.01291   0.00625  -0.1059  0.7005  0.0141  -5.2433   0.0000   0.0000   0.0000  -0.0954
  -7.250  -0.2974   0.01259   0.00589  -0.1059  0.6988  0.0149  -4.9809   0.0000   0.0000   0.0000  -0.1257
  -7.000  -0.2701   0.01231   0.00560  -0.1060  0.6969  0.0160  -4.7177   0.0000   0.0000   0.0000  -0.1628
  -6.750  -0.2426   0.01207   0.00531  -0.1061  0.6950  0.0170  -4.4615   0.0000   0.0000   0.0000  -0.2086
  -6.500  -0.2153   0.01180   0.00501  -0.1061  0.6932  0.0181  -4.2122   0.0000   0.0000   0.0000  -0.2657
  -6.250  -0.1878   0.01156   0.00475  -0.1061  0.6914  0.0193  -3.9658   0.0000   0.0000   0.0000  -0.3400
  -6.000  -0.1602   0.01135   0.00449  -0.1062  0.6898  0.0206  -3.7251   0.0000   0.0000   0.0000  -0.4405
  -5.750  -0.1326   0.01112   0.00424  -0.1063  0.6879  0.0222  -3.4892   0.0000   0.0000   0.0000  -0.5827
  -5.500  -0.1048   0.01091   0.00402  -0.1063  0.6856  0.0240  -3.2574   0.0000   0.0000   0.0000  -0.8028
  -5.250  -0.0770   0.01070   0.00379  -0.1064  0.6834  0.0259  -3.0322   0.0000   0.0000   0.0000  -1.1803
  -5.000  -0.0491   0.01052   0.00359  -0.1065  0.6813  0.0283  -2.8117   0.0000   0.0000   0.0000  -1.9894
  -4.750  -0.0213   0.01034   0.00339  -0.1066  0.6796  0.0308  -2.5977   0.0000   0.0000   0.0000  -4.9046
  -4.500   0.0067   0.01018   0.00320  -0.1067  0.6780  0.0336  -2.3888   0.0000   0.0000   0.0000  16.7271
  -4.250   0.0348   0.01001   0.00304  -0.1068  0.6759  0.0376  -2.1847   0.0000   0.0000   0.0000   3.4023
  -4.000   0.0629   0.00984   0.00289  -0.1069  0.6738  0.0425  -1.9949   0.0000   0.0000   0.0000   1.9929
  -3.750   0.0910   0.00968   0.00274  -0.1071  0.6718  0.0484  -1.8193   0.0000   0.0000   0.0000   1.4540
  -3.500   0.1190   0.00952   0.00260  -0.1072  0.6700  0.0571  -1.6487   0.0000   0.0000   0.0000   1.1699
  -3.250   0.1469   0.00937   0.00247  -0.1073  0.6681  0.0684  -1.4861   0.0000   0.0000   0.0000   0.9942
  -3.000   0.1749   0.00921   0.00235  -0.1074  0.6659  0.0837  -1.3483   0.0000   0.0000   0.0000   0.8746
  -2.750   0.2029   0.00903   0.00225  -0.1076  0.6634  0.1029  -1.2185   0.0000   0.0000   0.0000   0.7882
  -2.500   0.2309   0.00887   0.00216  -0.1077  0.6609  0.1258  -1.0921   0.0000   0.0000   0.0000   0.7227
  -2.250   0.2589   0.00872   0.00207  -0.1078  0.6588  0.1492  -0.9761   0.0000   0.0000   0.0000   0.6713
  -2.000   0.2867   0.00859   0.00199  -0.1079  0.6568  0.1750  -0.8665   0.0000   0.0000   0.0000   0.6300
  -1.750   0.3148   0.00843   0.00194  -0.1081  0.6544  0.2050  -0.7640   0.0000   0.0000   0.0000   0.5960
  -1.500   0.3425   0.00825   0.00189  -0.1082  0.6518  0.2453  -0.7800   0.0000   0.0000   0.0000   0.5677
  -1.250   0.3704   0.00811   0.00185  -0.1083  0.6492  0.2827  -0.7963   0.0000   0.0000   0.0000   0.5436
  -1.000   0.3980   0.00797   0.00181  -0.1084  0.6468  0.3250  -0.8125   0.0000   0.0000   0.0000   0.5228
  -0.750   0.4261   0.00786   0.00180  -0.1086  0.6443  0.3591  -0.8289   0.0000   0.0000   0.0000   0.5047
  -0.500   0.4541   0.00776   0.00180  -0.1087  0.6415  0.3940  -0.8453   0.0000   0.0000   0.0000   0.4888
  -0.250   0.4821   0.00768   0.00179  -0.1088  0.6388  0.4258  -0.8621   0.0000   0.0000   0.0000   0.4747
   0.000   0.5098   0.00759   0.00178  -0.1089  0.6362  0.4608  -0.8802   0.0000   0.0000   0.0000   0.4621
   0.250   0.5378   0.00752   0.00180  -0.1090  0.6333  0.4915  -0.8985   0.0000   0.0000   0.0000   0.4508
   0.500   0.5657   0.00744   0.00182  -0.1091  0.6300  0.5272  -0.9168   0.0000   0.0000   0.0000   0.4406
   0.750   0.5932   0.00736   0.00184  -0.1091  0.6269  0.5697  -0.9349   0.0000   0.0000   0.0000   0.4313
   1.000   0.6206   0.00729   0.00187  -0.1091  0.6240  0.6085  -0.9531   0.0000   0.0000   0.0000   0.4229
   1.250   0.6479   0.00721   0.00192  -0.1091  0.6204  0.6513  -0.9732   0.0000   0.0000   0.0000   0.4151
   1.500   0.6747   0.00712   0.00197  -0.1089  0.6167  0.6997  -0.9930   0.0000   0.0000   0.0000   0.4078
   1.750   0.7010   0.00704   0.00202  -0.1086  0.6132  0.7489  -1.0127   0.0000   0.0000   0.0000   0.4010
   2.000   0.7274   0.00696   0.00208  -0.1083  0.6090  0.7943  -1.0324   0.0000   0.0000   0.0000   0.3947
   2.250   0.7531   0.00688   0.00213  -0.1079  0.6049  0.8429  -1.0534   0.0000   0.0000   0.0000   0.3887
   2.500   0.7818   0.00677   0.00220  -0.1080  0.6007  0.9099  -1.0769   0.0000   0.0000   0.0000   0.3833
   2.750   0.8395   0.00679   0.00227  -0.1147  0.5950  0.9763  -1.1172   0.0000   0.0000   0.0000   0.3815
   3.000   0.8769   0.00688   0.00234  -0.1170  0.5893  1.0001  -1.1476   0.0000   0.0000   0.0000   0.3780
   3.250   0.9025   0.00696   0.00239  -0.1166  0.5825  1.0001  -1.1721   0.0000   0.0000   0.0000   0.3735
   3.500   0.9283   0.00705   0.00246  -0.1163  0.5744  1.0001  -1.2016   0.0000   0.0000   0.0000   0.3693
   3.750   0.9537   0.00715   0.00254  -0.1159  0.5661  1.0001  -1.2359   0.0000   0.0000   0.0000   0.3652
   4.000   0.9790   0.00727   0.00262  -0.1155  0.5574  1.0001  -1.2711   0.0000   0.0000   0.0000   0.3614
   4.250   1.0039   0.00741   0.00273  -0.1150  0.5478  1.0001  -1.3062   0.0000   0.0000   0.0000   0.3577
   4.500   1.0288   0.00755   0.00284  -0.1146  0.5378  1.0001  -1.3416   0.0000   0.0000   0.0000   0.3541
   4.750   1.0538   0.00770   0.00297  -0.1141  0.5279  1.0001  -1.3772   0.0000   0.0000   0.0000   0.3508
   5.000   1.0787   0.00786   0.00310  -0.1137  0.5184  1.0001  -1.4128   0.0000   0.0000   0.0000   0.3476
   5.250   1.1031   0.00804   0.00326  -0.1132  0.5080  1.0001  -1.4509   0.0000   0.0000   0.0000   0.3444
   5.500   1.1271   0.00824   0.00343  -0.1126  0.4969  1.0001  -1.4898   0.0000   0.0000   0.0000   0.3414
   5.750   1.1509   0.00845   0.00362  -0.1120  0.4853  1.0001  -1.5287   0.0000   0.0000   0.0000   0.3385
   6.000   1.1734   0.00872   0.00383  -0.1112  0.4707  1.0001  -1.5669   0.0000   0.0000   0.0000   0.3356
   6.250   1.1943   0.00906   0.00410  -0.1101  0.4523  1.0001  -1.6048   0.0000   0.0000   0.0000   0.3327
   6.500   1.2148   0.00942   0.00438  -0.1089  0.4331  1.0001  -1.6876   0.0000   0.0000   0.0000   0.3298
   6.750   1.2351   0.00978   0.00469  -0.1077  0.4171  1.0001  -1.8003   0.0000   0.0000   0.0000   0.3271
   7.000   1.2529   0.01025   0.00505  -0.1061  0.3936  1.0001  -1.9106   0.0000   0.0000   0.0000   0.3242
   7.250   1.2661   0.01089   0.00554  -0.1038  0.3623  1.0001  -2.0180   0.0000   0.0000   0.0000   0.3211
   7.500   1.2767   0.01162   0.00610  -0.1011  0.3300  1.0001  -2.1202   0.0000   0.0000   0.0000   0.3179
   7.750   1.2828   0.01239   0.00671  -0.0975  0.2992  1.0001  -2.2119   0.0000   0.0000   0.0000   0.3144
   8.000   1.2897   0.01321   0.00739  -0.0943  0.2721  1.0001  -2.3065   0.0000   0.0000   0.0000   0.3111
   8.250   1.2974   0.01409   0.00816  -0.0915  0.2481  1.0001  -2.4043   0.0000   0.0000   0.0000   0.3081
   8.500   1.3044   0.01511   0.00906  -0.0888  0.2246  1.0001  -2.5009   0.0000   0.0000   0.0000   0.3053
   8.750   1.3118   0.01623   0.01008  -0.0865  0.2021  1.0001  -2.5992   0.0000   0.0000   0.0000   0.3028
   9.000   1.3209   0.01737   0.01113  -0.0846  0.1842  1.0001  -2.7033   0.0000   0.0000   0.0000   0.3005
   9.250   1.3319   0.01845   0.01216  -0.0831  0.1696  1.0001  -2.8141   0.0000   0.0000   0.0000   0.2984
   9.500   1.3415   0.01966   0.01331  -0.0815  0.1537  1.0001  -2.9217   0.0000   0.0000   0.0000   0.2963
   9.750   1.3504   0.02095   0.01436  -0.0799  0.1370  1.0001  -3.0283   0.0000   0.0000   0.0000   0.2943
  10.000   1.3565   0.02245   0.01593  -0.0781  0.1177  1.0001  -3.1273   0.0000   0.0000   0.0000   0.2922
  10.250   1.3601   0.02414   0.01750  -0.0761  0.0963  1.0001  -3.2187   0.0000   0.0000   0.0000   0.2902
  10.500   1.3641   0.02582   0.01910  -0.0742  0.0787  1.0001  -3.3117   0.0000   0.0000   0.0000   0.2882
  10.750   1.3703   0.02735   0.02058  -0.0726  0.0670  1.0001  -3.4130   0.0000   0.0000   0.0000   0.2862
  11.000   1.3778   0.02880   0.02200  -0.0711  0.0583  1.0001  -3.5196   0.0000   0.0000   0.0000   0.2844
  11.250   1.3864   0.03018   0.02338  -0.0697  0.0520  1.0001  -3.6304   0.0000   0.0000   0.0000   0.2826
  11.500   1.3953   0.03156   0.02475  -0.0684  0.0463  1.0001  -3.7433   0.0000   0.0000   0.0000   0.2809
  11.750   1.4034   0.03299   0.02618  -0.0671  0.0403  1.0001  -3.8557   0.0000   0.0000   0.0000   0.2793
  12.000   1.4106   0.03453   0.02771  -0.0658  0.0343  1.0001  -3.9732   0.0000   0.0000   0.0000   0.2776
  12.250   1.4180   0.03608   0.02927  -0.0645  0.0294  1.0001  -4.0924   0.0000   0.0000   0.0000   0.2760
  12.500   1.4254   0.03767   0.03086  -0.0633  0.0259  1.0001  -4.2126   0.0000   0.0000   0.0000   0.2744
  13.000   1.4412   0.04088   0.03413  -0.0612  0.0214  1.0001  -4.4591   0.0000   0.0000   0.0000   0.2715
  13.250   1.4485   0.04258   0.03585  -0.0602  0.0198  1.0001  -4.5814   0.0000   0.0000   0.0000   0.2701
  13.500   1.4567   0.04422   0.03755  -0.0593  0.0185  1.0001  -4.7082   0.0000   0.0000   0.0000   0.2687
  13.750   1.4638   0.04600   0.03937  -0.0584  0.0174  1.0001  -4.8317   0.0000   0.0000   0.0000   0.2674
  14.000   1.4711   0.04780   0.04121  -0.0575  0.0165  1.0001  -4.9561   0.0000   0.0000   0.0000   0.2661
  14.250   1.4782   0.04963   0.04309  -0.0568  0.0158  1.0001  -5.0813   0.0000   0.0000   0.0000   0.2648
  14.500   1.4847   0.05154   0.04506  -0.0560  0.0151  1.0001  -5.2057   0.0000   0.0000   0.0000   0.2636
  14.750   1.4903   0.05358   0.04715  -0.0552  0.0145  1.0001  -5.3360   0.0000   0.0000   0.0000   0.2624
  15.000   1.4951   0.05573   0.04935  -0.0545  0.0140  1.0001  -5.4630   0.0000   0.0000   0.0000   0.2613
  15.250   1.5006   0.05783   0.05151  -0.0539  0.0137  1.0001  -5.5941   0.0000   0.0000   0.0000   0.2602
  15.500   1.5056   0.06001   0.05376  -0.0533  0.0134  1.0001  -5.7233   0.0000   0.0000   0.0000   0.2591
  15.750   1.5100   0.06230   0.05612  -0.0528  0.0131  1.0001  -5.8505   0.0000   0.0000   0.0000   0.2581
  16.000   1.5136   0.06470   0.05859  -0.0523  0.0129  1.0001  -5.9747   0.0000   0.0000   0.0000   0.2571
  16.250   1.5164   0.06721   0.06117  -0.0518  0.0126  1.0001  -6.1025   0.0000   0.0000   0.0000   0.2562
  16.500   1.5185   0.06984   0.06387  -0.0514  0.0124  1.0001  -6.2291   0.0000   0.0000   0.0000   0.2553
  16.750   1.5199   0.07260   0.06670  -0.0511  0.0122  1.0001  -6.3519   0.0000   0.0000   0.0000   0.2545
  17.000   1.5203   0.07552   0.06969  -0.0509  0.0120  1.0001  -6.4694   0.0000   0.0000   0.0000   0.2538
  17.250   1.5193   0.07863   0.07287  -0.0507  0.0118  1.0001  -6.5788   0.0000   0.0000   0.0000   0.2531
  17.750   1.5165   0.08510   0.07950  -0.0507  0.0114  1.0001  -6.7920   0.0000   0.0000   0.0000   0.2519
  18.000   1.5162   0.08826   0.08276  -0.0508  0.0113  1.0001  -6.9162   0.0000   0.0000   0.0000   0.2514
  18.250   1.5150   0.09156   0.08614  -0.0510  0.0111  1.0001  -7.0518   0.0000   0.0000   0.0000   0.2509
  18.500   1.5131   0.09498   0.08966  -0.0513  0.0110  1.0001  -7.1817   0.0000   0.0000   0.0000   0.2505
  18.750   1.5105   0.09855   0.09331  -0.0517  0.0109  1.0001  -7.3061   0.0000   0.0000   0.0000   0.2502
  19.000   1.5074   0.10223   0.09708  -0.0522  0.0107  1.0001  -7.4261   0.0000   0.0000   0.0000   0.2500
  19.250   1.5039   0.10599   0.10094  -0.0529  0.0106  1.0001  -7.5422   0.0000   0.0000   0.0000   0.2499
  19.500   1.5000   0.10985   0.10488  -0.0537  0.0105  1.0001  -7.6538   0.0000   0.0000   0.0000   0.2499
  19.750   1.4958   0.11377   0.10890  -0.0546  0.0104  1.0001  -7.7625   0.0000   0.0000   0.0000   0.2499
  20.000   1.4917   0.11775   0.11297  -0.0556  0.0103  1.0001  -7.8693   0.0000   0.0000   0.0000   0.2501


