xflr5 v6.61

 Calculated polar for: QX0026 v32

 1 1 Reynolds number fixed          Mach number fixed         

 xtrf =   1.000 (top)        1.000 (bottom)
 Mach =   0.000     Re =     0.600 e 6     Ncrit =   5.000

  alpha     CL        CD       CDp       Cm    Top Xtr Bot Xtr   Cpmin    Chinge    XCp    
 ------- -------- --------- --------- -------- ------- ------- -------- --------- ---------
 -10.000  -0.5749   0.01887   0.01279  -0.1074  0.7288  0.0100  -7.9783   0.0000   0.0000   0.0000   0.0465
  -9.750  -0.5508   0.01824   0.01207  -0.1072  0.7266  0.0103  -7.6751   0.0000   0.0000   0.0000   0.0386
  -9.500  -0.5265   0.01764   0.01136  -0.1071  0.7245  0.0107  -7.3766   0.0000   0.0000   0.0000   0.0299
  -9.250  -0.5019   0.01707   0.01068  -0.1069  0.7225  0.0111  -7.0814   0.0000   0.0000   0.0000   0.0202
  -9.000  -0.4769   0.01655   0.01004  -0.1068  0.7206  0.0115  -6.7883   0.0000   0.0000   0.0000   0.0093
  -8.750  -0.4520   0.01596   0.00941  -0.1067  0.7183  0.0120  -6.5143   0.0000   0.0000   0.0000  -0.0030
  -8.500  -0.4262   0.01552   0.00891  -0.1066  0.7161  0.0125  -6.2388   0.0000   0.0000   0.0000  -0.0174
  -8.250  -0.4001   0.01511   0.00843  -0.1065  0.7142  0.0131  -5.9689   0.0000   0.0000   0.0000  -0.0338
  -8.000  -0.3739   0.01471   0.00795  -0.1065  0.7124  0.0138  -5.7053   0.0000   0.0000   0.0000  -0.0526
  -7.750  -0.3477   0.01433   0.00749  -0.1064  0.7107  0.0145  -5.4448   0.0000   0.0000   0.0000  -0.0743
  -7.500  -0.3212   0.01397   0.00710  -0.1064  0.7088  0.0154  -5.1790   0.0000   0.0000   0.0000  -0.1002
  -7.250  -0.2942   0.01365   0.00675  -0.1064  0.7066  0.0164  -4.9183   0.0000   0.0000   0.0000  -0.1313
  -7.000  -0.2672   0.01336   0.00638  -0.1064  0.7046  0.0174  -4.6661   0.0000   0.0000   0.0000  -0.1689
  -6.750  -0.2404   0.01301   0.00601  -0.1064  0.7027  0.0184  -4.4177   0.0000   0.0000   0.0000  -0.2143
  -6.500  -0.2133   0.01274   0.00569  -0.1064  0.7011  0.0196  -4.1717   0.0000   0.0000   0.0000  -0.2722
  -6.250  -0.1859   0.01250   0.00538  -0.1065  0.6996  0.0209  -3.9310   0.0000   0.0000   0.0000  -0.3479
  -6.000  -0.1587   0.01221   0.00509  -0.1065  0.6976  0.0225  -3.6932   0.0000   0.0000   0.0000  -0.4493
  -5.750  -0.1311   0.01198   0.00482  -0.1066  0.6955  0.0242  -3.4606   0.0000   0.0000   0.0000  -0.5952
  -5.500  -0.1037   0.01172   0.00455  -0.1066  0.6934  0.0260  -3.2340   0.0000   0.0000   0.0000  -0.8169
  -5.250  -0.0760   0.01151   0.00430  -0.1067  0.6913  0.0283  -3.0113   0.0000   0.0000   0.0000  -1.2027
  -5.000  -0.0485   0.01129   0.00405  -0.1067  0.6895  0.0307  -2.7948   0.0000   0.0000   0.0000  -2.0238
  -4.750  -0.0206   0.01110   0.00384  -0.1068  0.6874  0.0333  -2.5830   0.0000   0.0000   0.0000  -5.0864
  -4.500   0.0072   0.01090   0.00364  -0.1069  0.6853  0.0370  -2.3759   0.0000   0.0000   0.0000  15.5373
  -4.250   0.0350   0.01071   0.00345  -0.1070  0.6833  0.0414  -2.1745   0.0000   0.0000   0.0000   3.3843
  -4.000   0.0629   0.01053   0.00327  -0.1071  0.6814  0.0467  -1.9897   0.0000   0.0000   0.0000   1.9937
  -3.750   0.0908   0.01036   0.00310  -0.1071  0.6796  0.0541  -1.8156   0.0000   0.0000   0.0000   1.4573
  -3.500   0.1187   0.01020   0.00295  -0.1072  0.6779  0.0645  -1.6462   0.0000   0.0000   0.0000   1.1728
  -3.000   0.1744   0.00982   0.00270  -0.1075  0.6736  0.0962  -1.3471   0.0000   0.0000   0.0000   0.8771
  -2.750   0.2021   0.00964   0.00259  -0.1076  0.6712  0.1190  -1.2181   0.0000   0.0000   0.0000   0.7905
  -2.500   0.2299   0.00948   0.00248  -0.1077  0.6690  0.1431  -1.0922   0.0000   0.0000   0.0000   0.7247
  -2.250   0.2578   0.00932   0.00239  -0.1078  0.6669  0.1691  -0.9770   0.0000   0.0000   0.0000   0.6731
  -2.000   0.2856   0.00916   0.00233  -0.1079  0.6644  0.1992  -0.8677   0.0000   0.0000   0.0000   0.6316
  -1.750   0.3133   0.00898   0.00227  -0.1080  0.6620  0.2384  -0.7620   0.0000   0.0000   0.0000   0.5976
  -1.500   0.3409   0.00881   0.00222  -0.1081  0.6597  0.2790  -0.7782   0.0000   0.0000   0.0000   0.5691
  -1.250   0.3686   0.00866   0.00217  -0.1082  0.6576  0.3210  -0.7944   0.0000   0.0000   0.0000   0.5448
  -1.000   0.3964   0.00853   0.00216  -0.1083  0.6550  0.3598  -0.8106   0.0000   0.0000   0.0000   0.5238
  -0.750   0.4242   0.00842   0.00214  -0.1085  0.6520  0.3946  -0.8269   0.0000   0.0000   0.0000   0.5056
  -0.500   0.4521   0.00832   0.00213  -0.1085  0.6494  0.4293  -0.8432   0.0000   0.0000   0.0000   0.4895
  -0.250   0.4798   0.00823   0.00212  -0.1086  0.6471  0.4656  -0.8600   0.0000   0.0000   0.0000   0.4753
   0.000   0.5074   0.00814   0.00212  -0.1087  0.6445  0.5010  -0.8781   0.0000   0.0000   0.0000   0.4627
   0.250   0.5351   0.00805   0.00214  -0.1087  0.6414  0.5366  -0.8962   0.0000   0.0000   0.0000   0.4513
   0.500   0.5624   0.00796   0.00216  -0.1087  0.6383  0.5804  -0.9142   0.0000   0.0000   0.0000   0.4410
   0.750   0.5896   0.00788   0.00218  -0.1086  0.6357  0.6225  -0.9321   0.0000   0.0000   0.0000   0.4316
   1.000   0.6166   0.00779   0.00223  -0.1085  0.6325  0.6659  -0.9502   0.0000   0.0000   0.0000   0.4230
   1.250   0.6432   0.00769   0.00228  -0.1083  0.6291  0.7151  -0.9698   0.0000   0.0000   0.0000   0.4150
   1.500   0.6692   0.00760   0.00233  -0.1079  0.6259  0.7662  -0.9893   0.0000   0.0000   0.0000   0.4076
   1.750   0.6951   0.00751   0.00238  -0.1074  0.6224  0.8145  -1.0087   0.0000   0.0000   0.0000   0.4006
   2.000   0.7213   0.00740   0.00244  -0.1070  0.6184  0.8673  -1.0284   0.0000   0.0000   0.0000   0.3941
   2.250   0.7661   0.00734   0.00250  -0.1107  0.6146  0.9440  -1.0603   0.0000   0.0000   0.0000   0.3899
   2.500   0.8154   0.00738   0.00255  -0.1156  0.6102  0.9922  -1.0956   0.0000   0.0000   0.0000   0.3869
   2.750   0.8471   0.00745   0.00261  -0.1166  0.6055  1.0001  -1.1208   0.0000   0.0000   0.0000   0.3825
   3.000   0.8731   0.00752   0.00266  -0.1163  0.6008  1.0001  -1.1446   0.0000   0.0000   0.0000   0.3778
   3.250   0.8990   0.00760   0.00272  -0.1160  0.5952  1.0001  -1.1693   0.0000   0.0000   0.0000   0.3733
   3.500   0.9248   0.00768   0.00278  -0.1156  0.5891  1.0001  -1.1987   0.0000   0.0000   0.0000   0.3690
   3.750   0.9502   0.00778   0.00285  -0.1152  0.5816  1.0001  -1.2325   0.0000   0.0000   0.0000   0.3650
   4.000   0.9759   0.00787   0.00294  -0.1149  0.5732  1.0001  -1.2680   0.0000   0.0000   0.0000   0.3611
   4.250   1.0014   0.00798   0.00303  -0.1146  0.5649  1.0001  -1.3036   0.0000   0.0000   0.0000   0.3575
   4.500   1.0265   0.00811   0.00313  -0.1141  0.5560  1.0001  -1.3390   0.0000   0.0000   0.0000   0.3540
   4.750   1.0513   0.00825   0.00325  -0.1137  0.5468  1.0001  -1.3745   0.0000   0.0000   0.0000   0.3506
   5.000   1.0760   0.00841   0.00339  -0.1132  0.5372  1.0001  -1.4100   0.0000   0.0000   0.0000   0.3473
   5.250   1.1008   0.00857   0.00353  -0.1127  0.5279  1.0001  -1.4481   0.0000   0.0000   0.0000   0.3442
   5.500   1.1251   0.00875   0.00369  -0.1122  0.5178  1.0001  -1.4873   0.0000   0.0000   0.0000   0.3412
   5.750   1.1488   0.00895   0.00388  -0.1116  0.5070  1.0001  -1.5261   0.0000   0.0000   0.0000   0.3383
   6.000   1.1723   0.00917   0.00408  -0.1109  0.4958  1.0001  -1.5648   0.0000   0.0000   0.0000   0.3355
   6.250   1.1948   0.00943   0.00430  -0.1101  0.4821  1.0001  -1.6042   0.0000   0.0000   0.0000   0.3326
   6.500   1.2152   0.00977   0.00458  -0.1089  0.4644  1.0001  -1.6860   0.0000   0.0000   0.0000   0.3298
   6.750   1.2350   0.01014   0.00489  -0.1076  0.4458  1.0001  -1.7976   0.0000   0.0000   0.0000   0.3270
   7.000   1.2540   0.01054   0.00522  -0.1062  0.4286  1.0001  -1.9092   0.0000   0.0000   0.0000   0.3242
   7.250   1.2709   0.01101   0.00561  -0.1045  0.4080  1.0001  -2.0252   0.0000   0.0000   0.0000   0.3213
   7.500   1.2836   0.01164   0.00611  -0.1021  0.3796  1.0001  -2.1331   0.0000   0.0000   0.0000   0.3183
   7.750   1.2919   0.01236   0.00669  -0.0989  0.3500  1.0001  -2.2307   0.0000   0.0000   0.0000   0.3149
   8.000   1.2963   0.01322   0.00739  -0.0952  0.3196  1.0001  -2.3192   0.0000   0.0000   0.0000   0.3114
   8.250   1.3006   0.01421   0.00823  -0.0918  0.2904  1.0001  -2.4078   0.0000   0.0000   0.0000   0.3082
   8.500   1.3055   0.01532   0.00920  -0.0888  0.2634  1.0001  -2.4985   0.0000   0.0000   0.0000   0.3053
   8.750   1.3116   0.01650   0.01027  -0.0863  0.2387  1.0001  -2.5930   0.0000   0.0000   0.0000   0.3026
   9.000   1.3175   0.01783   0.01149  -0.0841  0.2160  1.0001  -2.6872   0.0000   0.0000   0.0000   0.3002
   9.250   1.3256   0.01911   0.01268  -0.0823  0.1965  1.0001  -2.7890   0.0000   0.0000   0.0000   0.2980
   9.500   1.3350   0.02035   0.01386  -0.0807  0.1815  1.0001  -2.8954   0.0000   0.0000   0.0000   0.2960
   9.750   1.3440   0.02163   0.01508  -0.0791  0.1655  1.0001  -3.0019   0.0000   0.0000   0.0000   0.2940
  10.000   1.3524   0.02297   0.01637  -0.0776  0.1502  1.0001  -3.1076   0.0000   0.0000   0.0000   0.2920
  10.250   1.3595   0.02441   0.01774  -0.0759  0.1328  1.0001  -3.2099   0.0000   0.0000   0.0000   0.2900
  10.500   1.3639   0.02606   0.01929  -0.0741  0.1130  1.0001  -3.3044   0.0000   0.0000   0.0000   0.2880
  10.750   1.3661   0.02788   0.02100  -0.0721  0.0929  1.0001  -3.3924   0.0000   0.0000   0.0000   0.2860
  11.000   1.3694   0.02965   0.02269  -0.0702  0.0769  1.0001  -3.4839   0.0000   0.0000   0.0000   0.2841
  11.250   1.3746   0.03129   0.02430  -0.0686  0.0661  1.0001  -3.5826   0.0000   0.0000   0.0000   0.2823
  11.500   1.3806   0.03288   0.02587  -0.0671  0.0577  1.0001  -3.6848   0.0000   0.0000   0.0000   0.2805
  11.750   1.3878   0.03441   0.02739  -0.0658  0.0513  1.0001  -3.7917   0.0000   0.0000   0.0000   0.2788
  12.000   1.3955   0.03594   0.02893  -0.0645  0.0454  1.0001  -3.9075   0.0000   0.0000   0.0000   0.2772
  12.250   1.4024   0.03755   0.03054  -0.0633  0.0394  1.0001  -4.0237   0.0000   0.0000   0.0000   0.2756
  12.500   1.4090   0.03924   0.03223  -0.0621  0.0339  1.0001  -4.1391   0.0000   0.0000   0.0000   0.2740
  12.750   1.4156   0.04097   0.03397  -0.0610  0.0294  1.0001  -4.2555   0.0000   0.0000   0.0000   0.2725
  13.000   1.4221   0.04273   0.03575  -0.0599  0.0262  1.0001  -4.3720   0.0000   0.0000   0.0000   0.2711
  13.250   1.4285   0.04454   0.03759  -0.0589  0.0238  1.0001  -4.4891   0.0000   0.0000   0.0000   0.2697
  13.500   1.4355   0.04634   0.03943  -0.0580  0.0221  1.0001  -4.6086   0.0000   0.0000   0.0000   0.2683
  13.750   1.4418   0.04823   0.04137  -0.0571  0.0205  1.0001  -4.7261   0.0000   0.0000   0.0000   0.2670
  14.000   1.4481   0.05016   0.04334  -0.0562  0.0194  1.0001  -4.8438   0.0000   0.0000   0.0000   0.2658
  14.250   1.4545   0.05209   0.04534  -0.0555  0.0184  1.0001  -4.9630   0.0000   0.0000   0.0000   0.2645
  14.500   1.4599   0.05417   0.04747  -0.0547  0.0176  1.0001  -5.0791   0.0000   0.0000   0.0000   0.2633
  14.750   1.4642   0.05638   0.04973  -0.0540  0.0169  1.0001  -5.1975   0.0000   0.0000   0.0000   0.2622
  15.000   1.4696   0.05851   0.05193  -0.0534  0.0163  1.0001  -5.3244   0.0000   0.0000   0.0000   0.2611
  15.250   1.4744   0.06074   0.05423  -0.0528  0.0157  1.0001  -5.4494   0.0000   0.0000   0.0000   0.2600
  15.500   1.4784   0.06308   0.05663  -0.0523  0.0152  1.0001  -5.5719   0.0000   0.0000   0.0000   0.2590
  15.750   1.4815   0.06556   0.05918  -0.0518  0.0148  1.0001  -5.6903   0.0000   0.0000   0.0000   0.2581
  16.000   1.4834   0.06820   0.06189  -0.0513  0.0144  1.0001  -5.8032   0.0000   0.0000   0.0000   0.2572
  16.500   1.4858   0.07380   0.06764  -0.0507  0.0139  1.0001  -6.0298   0.0000   0.0000   0.0000   0.2555
  16.750   1.4871   0.07663   0.07056  -0.0505  0.0137  1.0001  -6.1479   0.0000   0.0000   0.0000   0.2548
  17.000   1.4877   0.07959   0.07361  -0.0503  0.0135  1.0001  -6.2619   0.0000   0.0000   0.0000   0.2541
  17.250   1.4875   0.08268   0.07678  -0.0503  0.0132  1.0001  -6.3723   0.0000   0.0000   0.0000   0.2535
  17.500   1.4869   0.08588   0.08007  -0.0504  0.0130  1.0001  -6.4796   0.0000   0.0000   0.0000   0.2529
  17.750   1.4857   0.08919   0.08347  -0.0505  0.0128  1.0001  -6.5837   0.0000   0.0000   0.0000   0.2525
  18.000   1.4839   0.09259   0.08696  -0.0507  0.0126  1.0001  -6.6845   0.0000   0.0000   0.0000   0.2521
  18.250   1.4815   0.09612   0.09058  -0.0511  0.0124  1.0001  -6.7961   0.0000   0.0000   0.0000   0.2517
  18.500   1.4785   0.09979   0.09433  -0.0516  0.0123  1.0001  -6.9133   0.0000   0.0000   0.0000   0.2515
  18.750   1.4747   0.10361   0.09823  -0.0522  0.0121  1.0001  -7.0242   0.0000   0.0000   0.0000   0.2514
  19.000   1.4700   0.10759   0.10230  -0.0529  0.0119  1.0001  -7.1267   0.0000   0.0000   0.0000   0.2514
  19.250   1.4643   0.11175   0.10655  -0.0538  0.0117  1.0001  -7.2193   0.0000   0.0000   0.0000   0.2515
  19.500   1.4577   0.11611   0.11099  -0.0549  0.0116  1.0001  -7.3020   0.0000   0.0000   0.0000   0.2518
  19.750   1.4537   0.12014   0.11512  -0.0561  0.0115  1.0001  -7.4026   0.0000   0.0000   0.0000   0.2520
  20.000   1.4503   0.12410   0.11917  -0.0573  0.0114  1.0001  -7.5069   0.0000   0.0000   0.0000   0.2523


