xflr5 v6.61

 Calculated polar for: QX0026 v32

 1 1 Reynolds number fixed          Mach number fixed         

 xtrf =   1.000 (top)        1.000 (bottom)
 Mach =   0.000     Re =     0.400 e 6     Ncrit =   5.000

  alpha     CL        CD       CDp       Cm    Top Xtr Bot Xtr   Cpmin    Chinge    XCp    
 ------- -------- --------- --------- -------- ------- ------- -------- --------- ---------
 -10.000  -0.5545   0.02278   0.01658  -0.1091  0.7455  0.0117  -7.6197   0.0000   0.0000   0.0000   0.0362
  -9.750  -0.5327   0.02195   0.01563  -0.1089  0.7434  0.0121  -7.3417   0.0000   0.0000   0.0000   0.0285
  -9.500  -0.5099   0.02119   0.01475  -0.1087  0.7414  0.0124  -7.0627   0.0000   0.0000   0.0000   0.0197
  -9.250  -0.4867   0.02043   0.01388  -0.1085  0.7390  0.0129  -6.7899   0.0000   0.0000   0.0000   0.0098
  -9.000  -0.4632   0.01967   0.01300  -0.1083  0.7366  0.0134  -6.5246   0.0000   0.0000   0.0000  -0.0012
  -8.750  -0.4392   0.01897   0.01214  -0.1081  0.7344  0.0140  -6.2782   0.0000   0.0000   0.0000  -0.0136
  -8.500  -0.4151   0.01832   0.01138  -0.1079  0.7324  0.0147  -6.0302   0.0000   0.0000   0.0000  -0.0277
  -8.250  -0.3898   0.01784   0.01084  -0.1079  0.7303  0.0154  -5.7650   0.0000   0.0000   0.0000  -0.0447
  -8.000  -0.3643   0.01735   0.01028  -0.1078  0.7279  0.0163  -5.5129   0.0000   0.0000   0.0000  -0.0643
  -7.750  -0.3388   0.01684   0.00965  -0.1077  0.7258  0.0172  -5.2755   0.0000   0.0000   0.0000  -0.0867
  -7.500  -0.3135   0.01631   0.00905  -0.1076  0.7239  0.0180  -5.0349   0.0000   0.0000   0.0000  -0.1126
  -7.250  -0.2875   0.01589   0.00857  -0.1075  0.7221  0.0190  -4.7898   0.0000   0.0000   0.0000  -0.1441
  -7.000  -0.2613   0.01549   0.00807  -0.1074  0.7203  0.0201  -4.5529   0.0000   0.0000   0.0000  -0.1823
  -6.750  -0.2350   0.01507   0.00761  -0.1074  0.7180  0.0214  -4.3180   0.0000   0.0000   0.0000  -0.2292
  -6.500  -0.2084   0.01473   0.00724  -0.1074  0.7158  0.0229  -4.0785   0.0000   0.0000   0.0000  -0.2892
  -6.250  -0.1816   0.01441   0.00683  -0.1073  0.7139  0.0245  -3.8505   0.0000   0.0000   0.0000  -0.3672
  -6.000  -0.1550   0.01404   0.00643  -0.1073  0.7122  0.0261  -3.6237   0.0000   0.0000   0.0000  -0.4712
  -5.750  -0.1279   0.01376   0.00608  -0.1073  0.7106  0.0282  -3.3999   0.0000   0.0000   0.0000  -0.6222
  -5.500  -0.1010   0.01344   0.00575  -0.1073  0.7085  0.0303  -3.1813   0.0000   0.0000   0.0000  -0.8522
  -5.250  -0.0738   0.01318   0.00544  -0.1073  0.7062  0.0327  -2.9676   0.0000   0.0000   0.0000  -1.2562
  -5.000  -0.0466   0.01290   0.00515  -0.1073  0.7040  0.0357  -2.7567   0.0000   0.0000   0.0000  -2.1291
  -4.750  -0.0193   0.01265   0.00487  -0.1073  0.7019  0.0392  -2.5507   0.0000   0.0000   0.0000  -5.4976
  -4.500   0.0082   0.01243   0.00460  -0.1074  0.7001  0.0434  -2.3494   0.0000   0.0000   0.0000  13.6561
  -4.250   0.0357   0.01220   0.00438  -0.1074  0.6978  0.0488  -2.1530   0.0000   0.0000   0.0000   3.3418
  -4.000   0.0632   0.01198   0.00418  -0.1074  0.6956  0.0563  -1.9777   0.0000   0.0000   0.0000   1.9947
  -3.750   0.0907   0.01177   0.00398  -0.1075  0.6935  0.0664  -1.8069   0.0000   0.0000   0.0000   1.4632
  -3.500   0.1182   0.01155   0.00380  -0.1076  0.6915  0.0804  -1.6403   0.0000   0.0000   0.0000   1.1796
  -3.250   0.1458   0.01134   0.00363  -0.1076  0.6898  0.0995  -1.4816   0.0000   0.0000   0.0000   1.0029
  -2.750   0.2008   0.01095   0.00340  -0.1078  0.6857  0.1498  -1.2169   0.0000   0.0000   0.0000   0.7956
  -2.500   0.2282   0.01076   0.00330  -0.1079  0.6833  0.1791  -1.0924   0.0000   0.0000   0.0000   0.7294
  -2.250   0.2557   0.01056   0.00319  -0.1080  0.6809  0.2140  -0.9786   0.0000   0.0000   0.0000   0.6775
  -2.000   0.2831   0.01036   0.00310  -0.1080  0.6789  0.2565  -0.8703   0.0000   0.0000   0.0000   0.6356
  -1.750   0.3104   0.01018   0.00306  -0.1081  0.6764  0.2992  -0.7649   0.0000   0.0000   0.0000   0.6012
  -1.500   0.3377   0.01003   0.00303  -0.1081  0.6739  0.3436  -0.7741   0.0000   0.0000   0.0000   0.5723
  -1.250   0.3652   0.00990   0.00301  -0.1082  0.6715  0.3833  -0.7901   0.0000   0.0000   0.0000   0.5475
  -1.000   0.3928   0.00978   0.00297  -0.1082  0.6694  0.4218  -0.8063   0.0000   0.0000   0.0000   0.5262
  -0.750   0.4204   0.00967   0.00294  -0.1083  0.6673  0.4601  -0.8225   0.0000   0.0000   0.0000   0.5076
  -0.500   0.4474   0.00955   0.00296  -0.1082  0.6640  0.5005  -0.8382   0.0000   0.0000   0.0000   0.4914
  -0.250   0.4745   0.00944   0.00297  -0.1081  0.6610  0.5406  -0.8550   0.0000   0.0000   0.0000   0.4769
   0.000   0.5016   0.00934   0.00297  -0.1080  0.6586  0.5830  -0.8729   0.0000   0.0000   0.0000   0.4640
   0.250   0.5285   0.00923   0.00298  -0.1079  0.6565  0.6300  -0.8906   0.0000   0.0000   0.0000   0.4523
   0.500   0.5549   0.00914   0.00304  -0.1076  0.6533  0.6745  -0.9079   0.0000   0.0000   0.0000   0.4417
   0.750   0.5810   0.00904   0.00309  -0.1072  0.6502  0.7236  -0.9252   0.0000   0.0000   0.0000   0.4320
   1.000   0.6067   0.00892   0.00311  -0.1067  0.6473  0.7764  -0.9430   0.0000   0.0000   0.0000   0.4230
   1.250   0.6324   0.00880   0.00315  -0.1061  0.6443  0.8303  -0.9622   0.0000   0.0000   0.0000   0.4146
   1.500   0.6623   0.00870   0.00321  -0.1064  0.6410  0.8928  -0.9837   0.0000   0.0000   0.0000   0.4071
   1.750   0.7188   0.00867   0.00324  -0.1127  0.6378  0.9619  -1.0200   0.0000   0.0000   0.0000   0.4029
   2.000   0.7608   0.00873   0.00325  -0.1159  0.6347  0.9992  -1.0486   0.0000   0.0000   0.0000   0.3982
   2.250   0.7875   0.00879   0.00332  -0.1158  0.6304  1.0001  -1.0707   0.0000   0.0000   0.0000   0.3926
   2.500   0.8135   0.00886   0.00336  -0.1155  0.6268  1.0001  -1.0926   0.0000   0.0000   0.0000   0.3873
   2.750   0.8397   0.00893   0.00341  -0.1153  0.6231  1.0001  -1.1145   0.0000   0.0000   0.0000   0.3822
   3.000   0.8655   0.00900   0.00349  -0.1150  0.6183  1.0001  -1.1382   0.0000   0.0000   0.0000   0.3775
   3.250   0.8917   0.00907   0.00352  -0.1147  0.6141  1.0001  -1.1631   0.0000   0.0000   0.0000   0.3730
   3.500   0.9176   0.00915   0.00362  -0.1144  0.6088  1.0001  -1.1923   0.0000   0.0000   0.0000   0.3688
   3.750   0.9436   0.00922   0.00367  -0.1142  0.6038  1.0001  -1.2258   0.0000   0.0000   0.0000   0.3647
   4.000   0.9692   0.00931   0.00377  -0.1138  0.5973  1.0001  -1.2610   0.0000   0.0000   0.0000   0.3609
   4.250   0.9947   0.00940   0.00384  -0.1135  0.5904  1.0001  -1.2966   0.0000   0.0000   0.0000   0.3572
   4.500   1.0199   0.00950   0.00393  -0.1130  0.5826  1.0001  -1.3321   0.0000   0.0000   0.0000   0.3536
   4.750   1.0451   0.00961   0.00405  -0.1126  0.5744  1.0001  -1.3678   0.0000   0.0000   0.0000   0.3503
   5.000   1.0701   0.00973   0.00418  -0.1122  0.5663  1.0001  -1.4035   0.0000   0.0000   0.0000   0.3470
   5.250   1.0948   0.00987   0.00431  -0.1117  0.5577  1.0001  -1.4408   0.0000   0.0000   0.0000   0.3439
   5.500   1.1191   0.01003   0.00445  -0.1112  0.5487  1.0001  -1.4799   0.0000   0.0000   0.0000   0.3409
   5.750   1.1434   0.01019   0.00462  -0.1106  0.5396  1.0001  -1.5192   0.0000   0.0000   0.0000   0.3380
   6.000   1.1673   0.01037   0.00481  -0.1101  0.5299  1.0001  -1.5583   0.0000   0.0000   0.0000   0.3352
   6.250   1.1905   0.01058   0.00501  -0.1093  0.5192  1.0001  -1.5979   0.0000   0.0000   0.0000   0.3324
   6.500   1.2131   0.01082   0.00524  -0.1085  0.5082  1.0001  -1.6754   0.0000   0.0000   0.0000   0.3297
   6.750   1.2346   0.01109   0.00549  -0.1075  0.4956  1.0001  -1.7904   0.0000   0.0000   0.0000   0.3269
   7.000   1.2544   0.01142   0.00579  -0.1062  0.4788  1.0001  -1.9039   0.0000   0.0000   0.0000   0.3242
   7.250   1.2720   0.01184   0.00613  -0.1046  0.4614  1.0001  -2.0173   0.0000   0.0000   0.0000   0.3214
   7.500   1.2890   0.01227   0.00652  -0.1029  0.4427  1.0001  -2.1356   0.0000   0.0000   0.0000   0.3186
   7.750   1.3030   0.01280   0.00698  -0.1007  0.4226  1.0001  -2.2485   0.0000   0.0000   0.0000   0.3157
   8.000   1.3125   0.01342   0.00751  -0.0977  0.3999  1.0001  -2.3508   0.0000   0.0000   0.0000   0.3124
   8.250   1.3173   0.01422   0.00820  -0.0940  0.3755  1.0001  -2.4417   0.0000   0.0000   0.0000   0.3090
   8.500   1.3204   0.01524   0.00908  -0.0905  0.3467  1.0001  -2.5281   0.0000   0.0000   0.0000   0.3058
   8.750   1.3220   0.01650   0.01020  -0.0872  0.3173  1.0001  -2.6107   0.0000   0.0000   0.0000   0.3028
   9.000   1.3233   0.01797   0.01154  -0.0843  0.2889  1.0001  -2.6923   0.0000   0.0000   0.0000   0.3001
   9.250   1.3259   0.01955   0.01298  -0.0818  0.2624  1.0001  -2.7774   0.0000   0.0000   0.0000   0.2976
   9.500   1.3294   0.02116   0.01448  -0.0797  0.2375  1.0001  -2.8657   0.0000   0.0000   0.0000   0.2954
   9.750   1.3336   0.02277   0.01598  -0.0777  0.2166  1.0001  -2.9568   0.0000   0.0000   0.0000   0.2933
  10.000   1.3401   0.02424   0.01740  -0.0759  0.1987  1.0001  -3.0556   0.0000   0.0000   0.0000   0.2913
  10.250   1.3468   0.02573   0.01882  -0.0743  0.1830  1.0001  -3.1555   0.0000   0.0000   0.0000   0.2893
  10.500   1.3537   0.02719   0.02025  -0.0727  0.1675  1.0001  -3.2574   0.0000   0.0000   0.0000   0.2874
  10.750   1.3595   0.02876   0.02176  -0.0710  0.1518  1.0001  -3.3561   0.0000   0.0000   0.0000   0.2855
  11.000   1.3640   0.03044   0.02337  -0.0694  0.1341  1.0001  -3.4513   0.0000   0.0000   0.0000   0.2836
  11.250   1.3668   0.03228   0.02513  -0.0676  0.1148  1.0001  -3.5409   0.0000   0.0000   0.0000   0.2817
  11.500   1.3677   0.03427   0.02702  -0.0657  0.0958  1.0001  -3.6249   0.0000   0.0000   0.0000   0.2799
  12.000   1.3722   0.03820   0.03084  -0.0625  0.0693  1.0001  -3.8038   0.0000   0.0000   0.0000   0.2764
  12.250   1.3768   0.04006   0.03268  -0.0612  0.0605  1.0001  -3.9085   0.0000   0.0000   0.0000   0.2748
  12.500   1.3815   0.04195   0.03457  -0.0599  0.0534  1.0001  -4.0145   0.0000   0.0000   0.0000   0.2733
  12.750   1.3869   0.04382   0.03646  -0.0588  0.0472  1.0001  -4.1234   0.0000   0.0000   0.0000   0.2718
  13.000   1.3926   0.04571   0.03837  -0.0578  0.0411  1.0001  -4.2339   0.0000   0.0000   0.0000   0.2704
  13.250   1.3977   0.04770   0.04037  -0.0568  0.0358  1.0001  -4.3424   0.0000   0.0000   0.0000   0.2690
  13.500   1.4025   0.04975   0.04244  -0.0558  0.0317  1.0001  -4.4501   0.0000   0.0000   0.0000   0.2677
  13.750   1.4072   0.05185   0.04457  -0.0549  0.0286  1.0001  -4.5576   0.0000   0.0000   0.0000   0.2664
  14.000   1.4114   0.05404   0.04681  -0.0541  0.0263  1.0001  -4.6631   0.0000   0.0000   0.0000   0.2652
  14.250   1.4157   0.05626   0.04908  -0.0534  0.0245  1.0001  -4.7692   0.0000   0.0000   0.0000   0.2640
  14.500   1.4187   0.05864   0.05151  -0.0526  0.0232  1.0001  -4.8702   0.0000   0.0000   0.0000   0.2629
  14.750   1.4231   0.06094   0.05389  -0.0520  0.0220  1.0001  -4.9773   0.0000   0.0000   0.0000   0.2618
  15.000   1.4262   0.06340   0.05643  -0.0515  0.0210  1.0001  -5.0879   0.0000   0.0000   0.0000   0.2608
  15.250   1.4277   0.06607   0.05916  -0.0510  0.0203  1.0001  -5.1922   0.0000   0.0000   0.0000   0.2599
  15.500   1.4295   0.06876   0.06193  -0.0505  0.0196  1.0001  -5.2964   0.0000   0.0000   0.0000   0.2590
  15.750   1.4318   0.07144   0.06470  -0.0502  0.0190  1.0001  -5.4033   0.0000   0.0000   0.0000   0.2581
  16.000   1.4333   0.07425   0.06760  -0.0499  0.0184  1.0001  -5.5073   0.0000   0.0000   0.0000   0.2573
  16.250   1.4339   0.07720   0.07063  -0.0497  0.0178  1.0001  -5.6078   0.0000   0.0000   0.0000   0.2566
  16.500   1.4332   0.08035   0.07386  -0.0496  0.0174  1.0001  -5.7032   0.0000   0.0000   0.0000   0.2560
  16.750   1.4310   0.08375   0.07734  -0.0496  0.0170  1.0001  -5.7964   0.0000   0.0000   0.0000   0.2555
  17.000   1.4301   0.08703   0.08071  -0.0497  0.0167  1.0001  -5.8952   0.0000   0.0000   0.0000   0.2550
  17.250   1.4292   0.09034   0.08413  -0.0499  0.0164  1.0001  -5.9929   0.0000   0.0000   0.0000   0.2545
  17.500   1.4276   0.09377   0.08766  -0.0501  0.0161  1.0001  -6.0865   0.0000   0.0000   0.0000   0.2542
  17.750   1.4256   0.09732   0.09131  -0.0505  0.0158  1.0001  -6.1770   0.0000   0.0000   0.0000   0.2539
  18.000   1.4232   0.10095   0.09503  -0.0510  0.0155  1.0001  -6.2647   0.0000   0.0000   0.0000   0.2537
  18.250   1.4206   0.10465   0.09884  -0.0516  0.0153  1.0001  -6.3504   0.0000   0.0000   0.0000   0.2536
  18.500   1.4177   0.10842   0.10270  -0.0524  0.0151  1.0001  -6.4333   0.0000   0.0000   0.0000   0.2536
  18.750   1.4145   0.11226   0.10663  -0.0532  0.0149  1.0001  -6.5344   0.0000   0.0000   0.0000   0.2537
  19.000   1.4112   0.11617   0.11063  -0.0542  0.0147  1.0001  -6.6361   0.0000   0.0000   0.0000   0.2538
  19.250   1.4075   0.12017   0.11471  -0.0553  0.0145  1.0001  -6.7337   0.0000   0.0000   0.0000   0.2541
  19.500   1.4033   0.12427   0.11889  -0.0566  0.0143  1.0001  -6.8250   0.0000   0.0000   0.0000   0.2545
  19.750   1.3994   0.12835   0.12303  -0.0580  0.0141  1.0001  -6.9159   0.0000   0.0000   0.0000   0.2550
  20.000   1.3981   0.13206   0.12685  -0.0593  0.0139  1.0001  -7.0252   0.0000   0.0000   0.0000   0.2553


