xflr5 v6.61

 Calculated polar for: QX0026 v32

 1 1 Reynolds number fixed          Mach number fixed         

 xtrf =   1.000 (top)        1.000 (bottom)
 Mach =   0.000     Re =     0.300 e 6     Ncrit =   5.000

  alpha     CL        CD       CDp       Cm    Top Xtr Bot Xtr   Cpmin    Chinge    XCp    
 ------- -------- --------- --------- -------- ------- ------- -------- --------- ---------
 -10.000  -0.5297   0.02757   0.02156  -0.1108  0.7597  0.0132  -7.1589   0.0000   0.0000   0.0000   0.0232
  -9.750  -0.5127   0.02595   0.01966  -0.1105  0.7571  0.0137  -6.9784   0.0000   0.0000   0.0000   0.0169
  -9.500  -0.4939   0.02450   0.01792  -0.1101  0.7547  0.0142  -6.7872   0.0000   0.0000   0.0000   0.0095
  -9.250  -0.4730   0.02350   0.01679  -0.1099  0.7527  0.0146  -6.5386   0.0000   0.0000   0.0000   0.0001
  -9.000  -0.4499   0.02281   0.01603  -0.1098  0.7502  0.0152  -6.2619   0.0000   0.0000   0.0000  -0.0118
  -8.750  -0.4266   0.02208   0.01519  -0.1097  0.7477  0.0159  -6.0030   0.0000   0.0000   0.0000  -0.0251
  -8.500  -0.4034   0.02123   0.01415  -0.1095  0.7453  0.0168  -5.7913   0.0000   0.0000   0.0000  -0.0395
  -8.250  -0.3801   0.02037   0.01310  -0.1092  0.7431  0.0176  -5.5857   0.0000   0.0000   0.0000  -0.0557
  -8.000  -0.3559   0.01972   0.01239  -0.1091  0.7410  0.0183  -5.3475   0.0000   0.0000   0.0000  -0.0752
  -7.750  -0.3312   0.01910   0.01169  -0.1089  0.7385  0.0191  -5.1183   0.0000   0.0000   0.0000  -0.0981
  -7.500  -0.3064   0.01847   0.01093  -0.1087  0.7362  0.0202  -4.9015   0.0000   0.0000   0.0000  -0.1248
  -7.250  -0.2813   0.01789   0.01025  -0.1086  0.7342  0.0213  -4.6780   0.0000   0.0000   0.0000  -0.1567
  -7.000  -0.2555   0.01746   0.00975  -0.1085  0.7324  0.0227  -4.4394   0.0000   0.0000   0.0000  -0.1964
  -6.750  -0.2296   0.01699   0.00917  -0.1084  0.7304  0.0243  -4.2192   0.0000   0.0000   0.0000  -0.2450
  -6.500  -0.2041   0.01649   0.00864  -0.1083  0.7280  0.0256  -3.9987   0.0000   0.0000   0.0000  -0.3052
  -6.250  -0.1779   0.01609   0.00818  -0.1082  0.7257  0.0274  -3.7767   0.0000   0.0000   0.0000  -0.3851
  -6.000  -0.1517   0.01568   0.00770  -0.1081  0.7238  0.0294  -3.5609   0.0000   0.0000   0.0000  -0.4928
  -5.750  -0.1251   0.01532   0.00729  -0.1081  0.7221  0.0316  -3.3443   0.0000   0.0000   0.0000  -0.6481
  -5.500  -0.0986   0.01496   0.00686  -0.1080  0.7204  0.0339  -3.1359   0.0000   0.0000   0.0000  -0.8871
  -5.250  -0.0719   0.01465   0.00653  -0.1080  0.7179  0.0369  -2.9271   0.0000   0.0000   0.0000  -1.3060
  -5.000  -0.0451   0.01433   0.00620  -0.1079  0.7156  0.0402  -2.7228   0.0000   0.0000   0.0000  -2.2209
  -4.750  -0.0182   0.01404   0.00586  -0.1079  0.7134  0.0441  -2.5235   0.0000   0.0000   0.0000  -5.8694
  -4.500   0.0090   0.01377   0.00555  -0.1079  0.7115  0.0492  -2.3265   0.0000   0.0000   0.0000  12.6294
  -4.250   0.0361   0.01351   0.00528  -0.1079  0.7095  0.0558  -2.1382   0.0000   0.0000   0.0000   3.3174
  -4.000   0.0632   0.01327   0.00506  -0.1079  0.7069  0.0649  -1.9675   0.0000   0.0000   0.0000   2.0020
  -3.750   0.0903   0.01303   0.00485  -0.1079  0.7046  0.0773  -1.8001   0.0000   0.0000   0.0000   1.4740
  -3.500   0.1175   0.01278   0.00465  -0.1079  0.7026  0.0949  -1.6361   0.0000   0.0000   0.0000   1.1892
  -3.250   0.1448   0.01255   0.00447  -0.1080  0.7008  0.1180  -1.4798   0.0000   0.0000   0.0000   1.0109
  -3.000   0.1721   0.01233   0.00432  -0.1081  0.6988  0.1458  -1.3430   0.0000   0.0000   0.0000   0.8895
  -2.750   0.1990   0.01213   0.00422  -0.1081  0.6964  0.1763  -1.2173   0.0000   0.0000   0.0000   0.8020
  -2.500   0.2261   0.01192   0.00413  -0.1081  0.6941  0.2125  -1.0941   0.0000   0.0000   0.0000   0.7352
  -2.250   0.2532   0.01170   0.00403  -0.1082  0.6919  0.2558  -0.9813   0.0000   0.0000   0.0000   0.6826
  -2.000   0.2805   0.01150   0.00394  -0.1082  0.6898  0.3010  -0.8733   0.0000   0.0000   0.0000   0.6399
  -1.750   0.3074   0.01133   0.00391  -0.1082  0.6872  0.3469  -0.7688   0.0000   0.0000   0.0000   0.6050
  -1.500   0.3343   0.01120   0.00389  -0.1081  0.6844  0.3893  -0.7697   0.0000   0.0000   0.0000   0.5757
  -1.250   0.3615   0.01107   0.00386  -0.1081  0.6820  0.4297  -0.7855   0.0000   0.0000   0.0000   0.5505
  -1.000   0.3888   0.01094   0.00383  -0.1081  0.6800  0.4710  -0.8015   0.0000   0.0000   0.0000   0.5288
  -0.750   0.4160   0.01081   0.00380  -0.1080  0.6782  0.5144  -0.8175   0.0000   0.0000   0.0000   0.5098
  -0.500   0.4421   0.01071   0.00386  -0.1078  0.6750  0.5579  -0.8326   0.0000   0.0000   0.0000   0.4934
  -0.250   0.4685   0.01060   0.00388  -0.1075  0.6720  0.6020  -0.8496   0.0000   0.0000   0.0000   0.4786
   0.250   0.5214   0.01037   0.00388  -0.1068  0.6672  0.6976  -0.8846   0.0000   0.0000   0.0000   0.4532
   0.500   0.5465   0.01028   0.00398  -0.1062  0.6639  0.7486  -0.9011   0.0000   0.0000   0.0000   0.4423
   0.750   0.5718   0.01017   0.00403  -0.1056  0.6610  0.8048  -0.9180   0.0000   0.0000   0.0000   0.4321
   1.000   0.5999   0.01004   0.00403  -0.1054  0.6584  0.8643  -0.9373   0.0000   0.0000   0.0000   0.4228
   1.250   0.6480   0.00998   0.00405  -0.1096  0.6554  0.9334  -0.9687   0.0000   0.0000   0.0000   0.4160
   1.500   0.6967   0.01001   0.00409  -0.1143  0.6517  0.9908  -1.0003   0.0000   0.0000   0.0000   0.4106
   1.750   0.7290   0.01007   0.00411  -0.1154  0.6487  1.0001  -1.0232   0.0000   0.0000   0.0000   0.4045
   2.000   0.7555   0.01012   0.00410  -0.1152  0.6462  1.0001  -1.0435   0.0000   0.0000   0.0000   0.3984
   2.250   0.7805   0.01021   0.00420  -0.1148  0.6418  1.0001  -1.0644   0.0000   0.0000   0.0000   0.3927
   2.500   0.8065   0.01027   0.00424  -0.1145  0.6381  1.0001  -1.0863   0.0000   0.0000   0.0000   0.3873
   2.750   0.8331   0.01033   0.00426  -0.1143  0.6349  1.0001  -1.1086   0.0000   0.0000   0.0000   0.3822
   3.000   0.8584   0.01043   0.00438  -0.1140  0.6303  1.0001  -1.1319   0.0000   0.0000   0.0000   0.3774
   3.250   0.8846   0.01050   0.00443  -0.1137  0.6263  1.0001  -1.1567   0.0000   0.0000   0.0000   0.3729
   3.500   0.9104   0.01058   0.00452  -0.1134  0.6217  1.0001  -1.1858   0.0000   0.0000   0.0000   0.3687
   3.750   0.9362   0.01066   0.00461  -0.1131  0.6166  1.0001  -1.2186   0.0000   0.0000   0.0000   0.3646
   4.000   0.9621   0.01074   0.00468  -0.1128  0.6117  1.0001  -1.2536   0.0000   0.0000   0.0000   0.3607
   4.250   0.9876   0.01083   0.00478  -0.1125  0.6056  1.0001  -1.2891   0.0000   0.0000   0.0000   0.3570
   4.500   1.0129   0.01091   0.00487  -0.1121  0.5990  1.0001  -1.3246   0.0000   0.0000   0.0000   0.3535
   4.750   1.0384   0.01099   0.00492  -0.1117  0.5921  1.0001  -1.3606   0.0000   0.0000   0.0000   0.3501
   5.000   1.0630   0.01110   0.00506  -0.1112  0.5839  1.0001  -1.3958   0.0000   0.0000   0.0000   0.3468
   5.250   1.0876   0.01122   0.00521  -0.1107  0.5761  1.0001  -1.4324   0.0000   0.0000   0.0000   0.3437
   5.500   1.1122   0.01135   0.00534  -0.1102  0.5680  1.0001  -1.4716   0.0000   0.0000   0.0000   0.3406
   5.750   1.1364   0.01149   0.00548  -0.1096  0.5595  1.0001  -1.5107   0.0000   0.0000   0.0000   0.3377
   6.000   1.1602   0.01166   0.00567  -0.1090  0.5504  1.0001  -1.5497   0.0000   0.0000   0.0000   0.3348
   6.250   1.1837   0.01184   0.00587  -0.1083  0.5412  1.0001  -1.5892   0.0000   0.0000   0.0000   0.3321
   6.500   1.2067   0.01205   0.00609  -0.1076  0.5313  1.0001  -1.6555   0.0000   0.0000   0.0000   0.3294
   6.750   1.2290   0.01227   0.00632  -0.1067  0.5205  1.0001  -1.7718   0.0000   0.0000   0.0000   0.3267
   7.000   1.2505   0.01253   0.00658  -0.1057  0.5091  1.0001  -1.8885   0.0000   0.0000   0.0000   0.3241
   7.250   1.2704   0.01284   0.00686  -0.1044  0.4954  1.0001  -2.0038   0.0000   0.0000   0.0000   0.3214
   7.500   1.2885   0.01320   0.00720  -0.1029  0.4784  1.0001  -2.1241   0.0000   0.0000   0.0000   0.3186
   7.750   1.3041   0.01365   0.00759  -0.1009  0.4609  1.0001  -2.2408   0.0000   0.0000   0.0000   0.3158
   8.000   1.3173   0.01417   0.00805  -0.0986  0.4410  1.0001  -2.3529   0.0000   0.0000   0.0000   0.3129
   8.250   1.3262   0.01477   0.00858  -0.0955  0.4212  1.0001  -2.4548   0.0000   0.0000   0.0000   0.3097
   8.500   1.3326   0.01552   0.00926  -0.0922  0.3993  1.0001  -2.5511   0.0000   0.0000   0.0000   0.3065
   8.750   1.3356   0.01653   0.01016  -0.0887  0.3746  1.0001  -2.6383   0.0000   0.0000   0.0000   0.3033
   9.000   1.3373   0.01777   0.01128  -0.0855  0.3474  1.0001  -2.7217   0.0000   0.0000   0.0000   0.3003
   9.250   1.3379   0.01926   0.01265  -0.0825  0.3203  1.0001  -2.8021   0.0000   0.0000   0.0000   0.2977
   9.500   1.3379   0.02097   0.01422  -0.0798  0.2937  1.0001  -2.8805   0.0000   0.0000   0.0000   0.2952
   9.750   1.3391   0.02272   0.01585  -0.0775  0.2673  1.0001  -2.9626   0.0000   0.0000   0.0000   0.2929
  10.000   1.3405   0.02452   0.01755  -0.0753  0.2440  1.0001  -3.0453   0.0000   0.0000   0.0000   0.2908
  10.250   1.3434   0.02625   0.01919  -0.0733  0.2231  1.0001  -3.1333   0.0000   0.0000   0.0000   0.2887
  10.500   1.3473   0.02794   0.02081  -0.0715  0.2045  1.0001  -3.2248   0.0000   0.0000   0.0000   0.2867
  10.750   1.3513   0.02964   0.02245  -0.0697  0.1874  1.0001  -3.3169   0.0000   0.0000   0.0000   0.2848
  11.000   1.3559   0.03132   0.02408  -0.0681  0.1712  1.0001  -3.4116   0.0000   0.0000   0.0000   0.2830
  11.250   1.3599   0.03307   0.02578  -0.0664  0.1550  1.0001  -3.5049   0.0000   0.0000   0.0000   0.2811
  11.500   1.3632   0.03489   0.02755  -0.0648  0.1374  1.0001  -3.5961   0.0000   0.0000   0.0000   0.2793
  11.750   1.3644   0.03692   0.02949  -0.0631  0.1184  1.0001  -3.6804   0.0000   0.0000   0.0000   0.2776
  12.000   1.3645   0.03909   0.03156  -0.0614  0.0993  1.0001  -3.7615   0.0000   0.0000   0.0000   0.2758
  12.250   1.3655   0.04127   0.03368  -0.0599  0.0838  1.0001  -3.8516   0.0000   0.0000   0.0000   0.2742
  12.500   1.3673   0.04343   0.03580  -0.0585  0.0725  1.0001  -3.9449   0.0000   0.0000   0.0000   0.2727
  12.750   1.3702   0.04555   0.03791  -0.0573  0.0635  1.0001  -4.0426   0.0000   0.0000   0.0000   0.2712
  13.000   1.3739   0.04765   0.04002  -0.0562  0.0561  1.0001  -4.1434   0.0000   0.0000   0.0000   0.2698
  13.250   1.3777   0.04979   0.04218  -0.0552  0.0497  1.0001  -4.2446   0.0000   0.0000   0.0000   0.2684
  13.500   1.3814   0.05197   0.04438  -0.0543  0.0438  1.0001  -4.3458   0.0000   0.0000   0.0000   0.2672
  13.750   1.3849   0.05423   0.04667  -0.0534  0.0387  1.0001  -4.4461   0.0000   0.0000   0.0000   0.2659
  14.250   1.3914   0.05892   0.05143  -0.0519  0.0313  1.0001  -4.6443   0.0000   0.0000   0.0000   0.2636
  14.500   1.3944   0.06136   0.05394  -0.0513  0.0290  1.0001  -4.7415   0.0000   0.0000   0.0000   0.2626
  14.750   1.3962   0.06397   0.05661  -0.0507  0.0272  1.0001  -4.8345   0.0000   0.0000   0.0000   0.2615
  15.000   1.3982   0.06660   0.05931  -0.0502  0.0258  1.0001  -4.9334   0.0000   0.0000   0.0000   0.2606
  15.250   1.3997   0.06934   0.06213  -0.0497  0.0246  1.0001  -5.0328   0.0000   0.0000   0.0000   0.2597
  15.500   1.3997   0.07232   0.06518  -0.0494  0.0236  1.0001  -5.1258   0.0000   0.0000   0.0000   0.2589
  15.750   1.3997   0.07533   0.06828  -0.0491  0.0229  1.0001  -5.2173   0.0000   0.0000   0.0000   0.2582
  16.000   1.4001   0.07833   0.07138  -0.0489  0.0221  1.0001  -5.3100   0.0000   0.0000   0.0000   0.2575
  16.250   1.3996   0.08149   0.07464  -0.0488  0.0215  1.0001  -5.3990   0.0000   0.0000   0.0000   0.2569
  16.500   1.3984   0.08480   0.07804  -0.0489  0.0209  1.0001  -5.4845   0.0000   0.0000   0.0000   0.2563
  16.750   1.3958   0.08831   0.08164  -0.0490  0.0204  1.0001  -5.5670   0.0000   0.0000   0.0000   0.2559
  17.000   1.3920   0.09205   0.08545  -0.0493  0.0199  1.0001  -5.6452   0.0000   0.0000   0.0000   0.2556
  17.250   1.3912   0.09542   0.08894  -0.0496  0.0195  1.0001  -5.7374   0.0000   0.0000   0.0000   0.2553
  17.500   1.3897   0.09893   0.09255  -0.0500  0.0190  1.0001  -5.8258   0.0000   0.0000   0.0000   0.2551
  17.750   1.3879   0.10251   0.09624  -0.0505  0.0186  1.0001  -5.9120   0.0000   0.0000   0.0000   0.2549
  18.000   1.3856   0.10617   0.10000  -0.0512  0.0182  1.0001  -5.9953   0.0000   0.0000   0.0000   0.2548
  18.250   1.3832   0.10990   0.10382  -0.0519  0.0179  1.0001  -6.0761   0.0000   0.0000   0.0000   0.2548
  18.500   1.3805   0.11369   0.10770  -0.0528  0.0176  1.0001  -6.1548   0.0000   0.0000   0.0000   0.2549
  18.750   1.3777   0.11755   0.11164  -0.0538  0.0173  1.0001  -6.2308   0.0000   0.0000   0.0000   0.2551
  19.000   1.3746   0.12145   0.11562  -0.0549  0.0171  1.0001  -6.3218   0.0000   0.0000   0.0000   0.2554
  19.250   1.3720   0.12528   0.11951  -0.0561  0.0169  1.0001  -6.4195   0.0000   0.0000   0.0000   0.2557
  19.500   1.3715   0.12881   0.12316  -0.0572  0.0166  1.0001  -6.5304   0.0000   0.0000   0.0000   0.2560
  19.750   1.3711   0.13235   0.12680  -0.0585  0.0164  1.0001  -6.6411   0.0000   0.0000   0.0000   0.2563
  20.000   1.3709   0.13588   0.13043  -0.0598  0.0161  1.0001  -6.7525   0.0000   0.0000   0.0000   0.2566


