xflr5 v6.61

 Calculated polar for: QX0026 v32

 1 1 Reynolds number fixed          Mach number fixed         

 xtrf =   1.000 (top)        1.000 (bottom)
 Mach =   0.000     Re =     0.800 e 6     Ncrit =   5.000

  alpha     CL        CD       CDp       Cm    Top Xtr Bot Xtr   Cpmin    Chinge    XCp    
 ------- -------- --------- --------- -------- ------- ------- -------- --------- ---------
 -10.000  -0.5849   0.01684   0.01083  -0.1065  0.7186  0.0089  -8.1745   0.0000   0.0000   0.0000   0.0514
  -9.750  -0.5607   0.01619   0.01011  -0.1063  0.7163  0.0093  -7.8659   0.0000   0.0000   0.0000   0.0439
  -9.500  -0.5355   0.01569   0.00955  -0.1062  0.7141  0.0096  -7.5469   0.0000   0.0000   0.0000   0.0352
  -9.250  -0.5099   0.01525   0.00905  -0.1061  0.7120  0.0100  -7.2294   0.0000   0.0000   0.0000   0.0254
  -9.000  -0.4841   0.01485   0.00856  -0.1060  0.7102  0.0104  -6.9171   0.0000   0.0000   0.0000   0.0143
  -8.750  -0.4579   0.01444   0.00810  -0.1060  0.7083  0.0109  -6.6267   0.0000   0.0000   0.0000   0.0017
  -8.500  -0.4315   0.01407   0.00766  -0.1060  0.7064  0.0113  -6.3465   0.0000   0.0000   0.0000  -0.0126
  -8.250  -0.4053   0.01364   0.00719  -0.1059  0.7044  0.0119  -6.0728   0.0000   0.0000   0.0000  -0.0286
  -8.000  -0.3787   0.01329   0.00680  -0.1059  0.7025  0.0125  -5.7955   0.0000   0.0000   0.0000  -0.0472
  -7.750  -0.3519   0.01299   0.00644  -0.1059  0.7007  0.0132  -5.5223   0.0000   0.0000   0.0000  -0.0689
  -7.500  -0.3249   0.01270   0.00609  -0.1059  0.6989  0.0139  -5.2547   0.0000   0.0000   0.0000  -0.0945
  -7.250  -0.2978   0.01239   0.00575  -0.1059  0.6970  0.0146  -4.9914   0.0000   0.0000   0.0000  -0.1250
  -7.000  -0.2706   0.01211   0.00545  -0.1059  0.6951  0.0156  -4.7282   0.0000   0.0000   0.0000  -0.1618
  -6.750  -0.2431   0.01187   0.00517  -0.1060  0.6933  0.0167  -4.4702   0.0000   0.0000   0.0000  -0.2074
  -6.500  -0.2157   0.01162   0.00488  -0.1060  0.6916  0.0178  -4.2198   0.0000   0.0000   0.0000  -0.2646
  -6.250  -0.1883   0.01138   0.00462  -0.1061  0.6900  0.0190  -3.9729   0.0000   0.0000   0.0000  -0.3383
  -6.000  -0.1606   0.01117   0.00437  -0.1061  0.6882  0.0203  -3.7312   0.0000   0.0000   0.0000  -0.4386
  -5.750  -0.1328   0.01095   0.00413  -0.1062  0.6861  0.0218  -3.4945   0.0000   0.0000   0.0000  -0.5813
  -5.500  -0.1050   0.01074   0.00392  -0.1063  0.6838  0.0236  -3.2619   0.0000   0.0000   0.0000  -0.8001
  -5.250  -0.0772   0.01055   0.00369  -0.1064  0.6817  0.0255  -3.0363   0.0000   0.0000   0.0000  -1.1766
  -5.000  -0.0494   0.01037   0.00349  -0.1065  0.6798  0.0278  -2.8154   0.0000   0.0000   0.0000  -1.9780
  -4.750  -0.0215   0.01020   0.00330  -0.1065  0.6782  0.0303  -2.6008   0.0000   0.0000   0.0000  -4.8583
  -4.500   0.0067   0.01003   0.00313  -0.1067  0.6763  0.0330  -2.3907   0.0000   0.0000   0.0000  16.6344
  -4.250   0.0348   0.00986   0.00297  -0.1068  0.6742  0.0369  -2.1866   0.0000   0.0000   0.0000   3.4034
  -4.000   0.0629   0.00970   0.00281  -0.1069  0.6721  0.0418  -1.9959   0.0000   0.0000   0.0000   1.9930
  -3.750   0.0910   0.00955   0.00266  -0.1070  0.6703  0.0475  -1.8201   0.0000   0.0000   0.0000   1.4537
  -3.500   0.1190   0.00940   0.00253  -0.1072  0.6685  0.0555  -1.6494   0.0000   0.0000   0.0000   1.1696
  -3.250   0.1470   0.00925   0.00241  -0.1073  0.6666  0.0665  -1.4863   0.0000   0.0000   0.0000   0.9936
  -3.000   0.1751   0.00907   0.00229  -0.1074  0.6641  0.0811  -1.3484   0.0000   0.0000   0.0000   0.8740
  -2.500   0.2310   0.00875   0.00209  -0.1077  0.6593  0.1224  -1.0920   0.0000   0.0000   0.0000   0.7223
  -2.250   0.2590   0.00861   0.00201  -0.1078  0.6573  0.1453  -0.9761   0.0000   0.0000   0.0000   0.6710
  -2.000   0.2871   0.00846   0.00194  -0.1080  0.6551  0.1701  -0.8661   0.0000   0.0000   0.0000   0.6297
  -1.750   0.3151   0.00831   0.00188  -0.1081  0.6526  0.1988  -0.7644   0.0000   0.0000   0.0000   0.5957
  -1.500   0.3429   0.00814   0.00183  -0.1082  0.6501  0.2382  -0.7804   0.0000   0.0000   0.0000   0.5674
  -1.250   0.3707   0.00800   0.00178  -0.1083  0.6476  0.2753  -0.7966   0.0000   0.0000   0.0000   0.5434
  -1.000   0.3984   0.00786   0.00175  -0.1085  0.6452  0.3175  -0.8129   0.0000   0.0000   0.0000   0.5226
  -0.750   0.4265   0.00775   0.00174  -0.1086  0.6425  0.3518  -0.8293   0.0000   0.0000   0.0000   0.5045
  -0.500   0.4545   0.00765   0.00173  -0.1087  0.6397  0.3865  -0.8458   0.0000   0.0000   0.0000   0.4886
  -0.250   0.4825   0.00757   0.00172  -0.1089  0.6371  0.4182  -0.8624   0.0000   0.0000   0.0000   0.4745
   0.000   0.5103   0.00749   0.00172  -0.1090  0.6345  0.4522  -0.8806   0.0000   0.0000   0.0000   0.4620
   0.250   0.5384   0.00741   0.00174  -0.1091  0.6314  0.4829  -0.8990   0.0000   0.0000   0.0000   0.4507
   0.500   0.5663   0.00734   0.00175  -0.1092  0.6282  0.5169  -0.9173   0.0000   0.0000   0.0000   0.4405
   0.750   0.5938   0.00727   0.00177  -0.1092  0.6253  0.5579  -0.9354   0.0000   0.0000   0.0000   0.4313
   1.000   0.6214   0.00719   0.00181  -0.1093  0.6220  0.5967  -0.9537   0.0000   0.0000   0.0000   0.4228
   1.250   0.6489   0.00711   0.00185  -0.1093  0.6183  0.6382  -0.9738   0.0000   0.0000   0.0000   0.4151
   1.500   0.6757   0.00704   0.00189  -0.1091  0.6148  0.6858  -0.9937   0.0000   0.0000   0.0000   0.4078
   1.750   0.7023   0.00695   0.00195  -0.1089  0.6110  0.7352  -1.0135   0.0000   0.0000   0.0000   0.4011
   2.000   0.7287   0.00687   0.00201  -0.1086  0.6068  0.7806  -1.0333   0.0000   0.0000   0.0000   0.3948
   2.250   0.7545   0.00681   0.00206  -0.1082  0.6030  0.8263  -1.0543   0.0000   0.0000   0.0000   0.3888
   2.500   0.7806   0.00670   0.00213  -0.1078  0.5983  0.8847  -1.0763   0.0000   0.0000   0.0000   0.3832
   2.750   0.8303   0.00668   0.00221  -0.1126  0.5929  0.9584  -1.1120   0.0000   0.0000   0.0000   0.3805
   3.000   0.8756   0.00675   0.00227  -0.1167  0.5865  0.9978  -1.1470   0.0000   0.0000   0.0000   0.3779
   3.250   0.9033   0.00684   0.00234  -0.1168  0.5795  1.0001  -1.1728   0.0000   0.0000   0.0000   0.3736
   3.500   0.9288   0.00694   0.00241  -0.1164  0.5711  1.0001  -1.2020   0.0000   0.0000   0.0000   0.3693
   3.750   0.9543   0.00704   0.00248  -0.1160  0.5625  1.0001  -1.2364   0.0000   0.0000   0.0000   0.3653
   4.000   0.9796   0.00716   0.00257  -0.1156  0.5534  1.0001  -1.2717   0.0000   0.0000   0.0000   0.3614
   4.250   1.0046   0.00729   0.00268  -0.1152  0.5436  1.0001  -1.3069   0.0000   0.0000   0.0000   0.3577
   4.500   1.0296   0.00744   0.00279  -0.1147  0.5334  1.0001  -1.3423   0.0000   0.0000   0.0000   0.3542
   4.750   1.0545   0.00759   0.00291  -0.1143  0.5238  1.0001  -1.3778   0.0000   0.0000   0.0000   0.3508
   5.000   1.0792   0.00776   0.00306  -0.1138  0.5142  1.0001  -1.4133   0.0000   0.0000   0.0000   0.3476
   5.250   1.1034   0.00795   0.00321  -0.1133  0.5037  1.0001  -1.4514   0.0000   0.0000   0.0000   0.3445
   5.500   1.1275   0.00815   0.00338  -0.1127  0.4923  1.0001  -1.4903   0.0000   0.0000   0.0000   0.3415
   5.750   1.1512   0.00836   0.00357  -0.1121  0.4801  1.0001  -1.5292   0.0000   0.0000   0.0000   0.3385
   6.000   1.1733   0.00865   0.00380  -0.1112  0.4644  1.0001  -1.5670   0.0000   0.0000   0.0000   0.3356
   6.250   1.1944   0.00899   0.00406  -0.1101  0.4451  1.0001  -1.6051   0.0000   0.0000   0.0000   0.3327
   6.500   1.2148   0.00935   0.00435  -0.1089  0.4269  1.0001  -1.6880   0.0000   0.0000   0.0000   0.3298
   6.750   1.2352   0.00971   0.00465  -0.1078  0.4102  1.0001  -1.8010   0.0000   0.0000   0.0000   0.3271
   7.000   1.2518   0.01023   0.00505  -0.1060  0.3839  1.0001  -1.9089   0.0000   0.0000   0.0000   0.3242
   7.250   1.2646   0.01090   0.00555  -0.1036  0.3509  1.0001  -2.0152   0.0000   0.0000   0.0000   0.3210
   7.500   1.2752   0.01163   0.00611  -0.1008  0.3186  1.0001  -2.1171   0.0000   0.0000   0.0000   0.3178
   7.750   1.2816   0.01238   0.00671  -0.0973  0.2894  1.0001  -2.2097   0.0000   0.0000   0.0000   0.3143
   8.000   1.2888   0.01319   0.00738  -0.0942  0.2633  1.0001  -2.3053   0.0000   0.0000   0.0000   0.3111
   8.250   1.2973   0.01404   0.00812  -0.0915  0.2399  1.0001  -2.4052   0.0000   0.0000   0.0000   0.3082
   8.500   1.3042   0.01507   0.00903  -0.0888  0.2169  1.0001  -2.5014   0.0000   0.0000   0.0000   0.3053
   8.750   1.3122   0.01616   0.01003  -0.0866  0.1949  1.0001  -2.6013   0.0000   0.0000   0.0000   0.3028
   9.000   1.3223   0.01723   0.01102  -0.0848  0.1787  1.0001  -2.7086   0.0000   0.0000   0.0000   0.3005
   9.250   1.3330   0.01832   0.01206  -0.0832  0.1637  1.0001  -2.8187   0.0000   0.0000   0.0000   0.2984
   9.500   1.3426   0.01954   0.01320  -0.0816  0.1478  1.0001  -2.9265   0.0000   0.0000   0.0000   0.2964
   9.750   1.3509   0.02087   0.01446  -0.0800  0.1297  1.0001  -3.0312   0.0000   0.0000   0.0000   0.2943
  10.000   1.3564   0.02241   0.01590  -0.0781  0.1091  1.0001  -3.1280   0.0000   0.0000   0.0000   0.2923
  10.250   1.3600   0.02409   0.01747  -0.0761  0.0888  1.0001  -3.2197   0.0000   0.0000   0.0000   0.2902
  10.500   1.3648   0.02572   0.01902  -0.0743  0.0735  1.0001  -3.3156   0.0000   0.0000   0.0000   0.2882
  10.750   1.3720   0.02717   0.02044  -0.0727  0.0632  1.0001  -3.4203   0.0000   0.0000   0.0000   0.2863
  11.000   1.3807   0.02854   0.02179  -0.0713  0.0556  1.0001  -3.5307   0.0000   0.0000   0.0000   0.2845
  11.250   1.3897   0.02989   0.02313  -0.0700  0.0497  1.0001  -3.6432   0.0000   0.0000   0.0000   0.2828
  11.500   1.3985   0.03127   0.02451  -0.0687  0.0439  1.0001  -3.7560   0.0000   0.0000   0.0000   0.2810
  11.750   1.4065   0.03271   0.02594  -0.0674  0.0378  1.0001  -3.8690   0.0000   0.0000   0.0000   0.2793
  12.000   1.4139   0.03422   0.02744  -0.0660  0.0320  1.0001  -3.9878   0.0000   0.0000   0.0000   0.2777
  12.250   1.4214   0.03577   0.02899  -0.0648  0.0276  1.0001  -4.1074   0.0000   0.0000   0.0000   0.2761
  12.500   1.4292   0.03732   0.03056  -0.0636  0.0246  1.0001  -4.2293   0.0000   0.0000   0.0000   0.2745
  12.750   1.4372   0.03889   0.03216  -0.0625  0.0224  1.0001  -4.3528   0.0000   0.0000   0.0000   0.2730
  13.000   1.4451   0.04050   0.03379  -0.0615  0.0205  1.0001  -4.4774   0.0000   0.0000   0.0000   0.2716
  13.250   1.4534   0.04210   0.03544  -0.0605  0.0191  1.0001  -4.6039   0.0000   0.0000   0.0000   0.2702
  13.500   1.4613   0.04378   0.03715  -0.0596  0.0178  1.0001  -4.7297   0.0000   0.0000   0.0000   0.2688
  13.750   1.4684   0.04554   0.03896  -0.0587  0.0168  1.0001  -4.8538   0.0000   0.0000   0.0000   0.2674
  14.000   1.4764   0.04726   0.04073  -0.0579  0.0160  1.0001  -4.9818   0.0000   0.0000   0.0000   0.2662
  14.250   1.4834   0.04909   0.04260  -0.0570  0.0153  1.0001  -5.1076   0.0000   0.0000   0.0000   0.2649
  14.500   1.4896   0.05102   0.04458  -0.0562  0.0146  1.0001  -5.2318   0.0000   0.0000   0.0000   0.2637
  14.750   1.4950   0.05307   0.04668  -0.0555  0.0141  1.0001  -5.3613   0.0000   0.0000   0.0000   0.2625
  15.000   1.5013   0.05507   0.04874  -0.0548  0.0137  1.0001  -5.4956   0.0000   0.0000   0.0000   0.2613
  15.250   1.5069   0.05715   0.05088  -0.0542  0.0134  1.0001  -5.6277   0.0000   0.0000   0.0000   0.2602
  15.500   1.5119   0.05931   0.05311  -0.0535  0.0131  1.0001  -5.7582   0.0000   0.0000   0.0000   0.2592
  15.750   1.5162   0.06160   0.05546  -0.0530  0.0128  1.0001  -5.8857   0.0000   0.0000   0.0000   0.2581
  16.000   1.5197   0.06400   0.05792  -0.0525  0.0125  1.0001  -6.0106   0.0000   0.0000   0.0000   0.2571
  16.250   1.5226   0.06650   0.06048  -0.0520  0.0123  1.0001  -6.1400   0.0000   0.0000   0.0000   0.2562
  16.500   1.5245   0.06913   0.06318  -0.0516  0.0121  1.0001  -6.2663   0.0000   0.0000   0.0000   0.2553
  16.750   1.5255   0.07192   0.06604  -0.0513  0.0119  1.0001  -6.3870   0.0000   0.0000   0.0000   0.2545
  17.000   1.5250   0.07493   0.06913  -0.0510  0.0117  1.0001  -6.4995   0.0000   0.0000   0.0000   0.2537
  17.250   1.5246   0.07797   0.07224  -0.0508  0.0115  1.0001  -6.6123   0.0000   0.0000   0.0000   0.2530
  17.500   1.5254   0.08089   0.07525  -0.0507  0.0114  1.0001  -6.7329   0.0000   0.0000   0.0000   0.2523
  17.750   1.5255   0.08393   0.07838  -0.0507  0.0112  1.0001  -6.8503   0.0000   0.0000   0.0000   0.2517
  18.000   1.5250   0.08709   0.08162  -0.0508  0.0110  1.0001  -6.9815   0.0000   0.0000   0.0000   0.2512
  18.250   1.5239   0.09037   0.08499  -0.0510  0.0109  1.0001  -7.1183   0.0000   0.0000   0.0000   0.2507
  18.500   1.5219   0.09378   0.08849  -0.0512  0.0108  1.0001  -7.2491   0.0000   0.0000   0.0000   0.2503
  18.750   1.5194   0.09732   0.09211  -0.0516  0.0106  1.0001  -7.3752   0.0000   0.0000   0.0000   0.2500
  19.000   1.5164   0.10096   0.09584  -0.0521  0.0105  1.0001  -7.4977   0.0000   0.0000   0.0000   0.2497
  19.250   1.5130   0.10469   0.09966  -0.0527  0.0104  1.0001  -7.6164   0.0000   0.0000   0.0000   0.2496
  19.500   1.5092   0.10850   0.10357  -0.0534  0.0103  1.0001  -7.7305   0.0000   0.0000   0.0000   0.2495
  19.750   1.5050   0.11241   0.10756  -0.0543  0.0102  1.0001  -7.8407   0.0000   0.0000   0.0000   0.2495
  20.000   1.5005   0.11641   0.11164  -0.0553  0.0101  1.0001  -7.9471   0.0000   0.0000   0.0000   0.2496


