xflr5 v6.61

 Calculated polar for: QX0026 v32

 1 1 Reynolds number fixed          Mach number fixed         

 xtrf =   1.000 (top)        1.000 (bottom)
 Mach =   0.000     Re =     0.420 e 6     Ncrit =   5.000

  alpha     CL        CD       CDp       Cm    Top Xtr Bot Xtr   Cpmin    Chinge    XCp    
 ------- -------- --------- --------- -------- ------- ------- -------- --------- ---------
 -10.000  -0.5570   0.02228   0.01604  -0.1088  0.7435  0.0115  -7.6727   0.0000   0.0000   0.0000   0.0376
  -9.750  -0.5356   0.02136   0.01502  -0.1086  0.7414  0.0118  -7.4001   0.0000   0.0000   0.0000   0.0302
  -9.500  -0.5125   0.02062   0.01419  -0.1085  0.7390  0.0122  -7.1149   0.0000   0.0000   0.0000   0.0213
  -9.250  -0.4889   0.01993   0.01340  -0.1083  0.7367  0.0126  -6.8330   0.0000   0.0000   0.0000   0.0113
  -9.000  -0.4651   0.01924   0.01259  -0.1081  0.7345  0.0132  -6.5589   0.0000   0.0000   0.0000   0.0003
  -8.750  -0.4410   0.01857   0.01178  -0.1079  0.7325  0.0137  -6.3064   0.0000   0.0000   0.0000  -0.0121
  -8.500  -0.4165   0.01795   0.01103  -0.1077  0.7304  0.0144  -6.0634   0.0000   0.0000   0.0000  -0.0263
  -8.250  -0.3914   0.01742   0.01046  -0.1077  0.7280  0.0151  -5.7998   0.0000   0.0000   0.0000  -0.0430
  -8.000  -0.3657   0.01697   0.00995  -0.1076  0.7258  0.0159  -5.5397   0.0000   0.0000   0.0000  -0.0626
  -7.750  -0.3400   0.01650   0.00937  -0.1075  0.7239  0.0169  -5.2946   0.0000   0.0000   0.0000  -0.0850
  -7.500  -0.3145   0.01600   0.00877  -0.1074  0.7222  0.0177  -5.0562   0.0000   0.0000   0.0000  -0.1108
  -7.250  -0.2885   0.01558   0.00830  -0.1073  0.7204  0.0186  -4.8086   0.0000   0.0000   0.0000  -0.1421
  -7.000  -0.2621   0.01519   0.00785  -0.1073  0.7181  0.0197  -4.5678   0.0000   0.0000   0.0000  -0.1803
  -6.750  -0.2356   0.01482   0.00740  -0.1072  0.7159  0.0210  -4.3323   0.0000   0.0000   0.0000  -0.2275
  -6.500  -0.2091   0.01445   0.00701  -0.1072  0.7139  0.0224  -4.0921   0.0000   0.0000   0.0000  -0.2866
  -6.250  -0.1822   0.01414   0.00663  -0.1072  0.7122  0.0240  -3.8602   0.0000   0.0000   0.0000  -0.3643
  -6.000  -0.1555   0.01380   0.00623  -0.1072  0.7106  0.0256  -3.6340   0.0000   0.0000   0.0000  -0.4680
  -5.750  -0.1284   0.01351   0.00591  -0.1072  0.7086  0.0276  -3.4080   0.0000   0.0000   0.0000  -0.6179
  -5.500  -0.1014   0.01321   0.00559  -0.1072  0.7064  0.0298  -3.1890   0.0000   0.0000   0.0000  -0.8471
  -5.250  -0.0741   0.01295   0.00528  -0.1072  0.7042  0.0322  -2.9732   0.0000   0.0000   0.0000  -1.2477
  -5.000  -0.0469   0.01268   0.00499  -0.1072  0.7022  0.0349  -2.7621   0.0000   0.0000   0.0000  -2.1142
  -4.750  -0.0194   0.01245   0.00472  -0.1072  0.7003  0.0385  -2.5550   0.0000   0.0000   0.0000  -5.4554
  -4.500   0.0081   0.01223   0.00447  -0.1073  0.6981  0.0426  -2.3529   0.0000   0.0000   0.0000  13.8325
  -4.250   0.0356   0.01200   0.00425  -0.1073  0.6958  0.0477  -2.1560   0.0000   0.0000   0.0000   3.3464
  -4.000   0.0631   0.01178   0.00405  -0.1074  0.6937  0.0550  -1.9794   0.0000   0.0000   0.0000   1.9942
  -3.750   0.0908   0.01158   0.00385  -0.1075  0.6918  0.0648  -1.8079   0.0000   0.0000   0.0000   1.4617
  -3.500   0.1184   0.01137   0.00367  -0.1075  0.6900  0.0783  -1.6408   0.0000   0.0000   0.0000   1.1780
  -3.250   0.1459   0.01116   0.00351  -0.1076  0.6882  0.0966  -1.4820   0.0000   0.0000   0.0000   1.0020
  -3.000   0.1734   0.01096   0.00339  -0.1077  0.6859  0.1197  -1.3450   0.0000   0.0000   0.0000   0.8822
  -2.750   0.2009   0.01077   0.00328  -0.1078  0.6838  0.1458  -1.2171   0.0000   0.0000   0.0000   0.7949
  -2.500   0.2285   0.01058   0.00317  -0.1079  0.6815  0.1741  -1.0922   0.0000   0.0000   0.0000   0.7287
  -2.250   0.2561   0.01039   0.00306  -0.1079  0.6794  0.2074  -0.9781   0.0000   0.0000   0.0000   0.6767
  -2.000   0.2834   0.01020   0.00299  -0.1080  0.6771  0.2489  -0.8699   0.0000   0.0000   0.0000   0.6350
  -1.750   0.3107   0.01002   0.00295  -0.1081  0.6744  0.2916  -0.7646   0.0000   0.0000   0.0000   0.6007
  -1.500   0.3381   0.00986   0.00291  -0.1081  0.6720  0.3356  -0.7747   0.0000   0.0000   0.0000   0.5718
  -1.250   0.3658   0.00973   0.00288  -0.1082  0.6699  0.3764  -0.7908   0.0000   0.0000   0.0000   0.5471
  -1.000   0.3935   0.00961   0.00284  -0.1083  0.6679  0.4142  -0.8071   0.0000   0.0000   0.0000   0.5258
  -0.750   0.4208   0.00950   0.00284  -0.1083  0.6651  0.4516  -0.8230   0.0000   0.0000   0.0000   0.5074
  -0.500   0.4480   0.00938   0.00284  -0.1083  0.6621  0.4909  -0.8389   0.0000   0.0000   0.0000   0.4911
  -0.250   0.4753   0.00927   0.00284  -0.1082  0.6593  0.5314  -0.8558   0.0000   0.0000   0.0000   0.4767
   0.000   0.5027   0.00918   0.00283  -0.1082  0.6572  0.5724  -0.8738   0.0000   0.0000   0.0000   0.4638
   0.250   0.5293   0.00907   0.00288  -0.1080  0.6544  0.6187  -0.8913   0.0000   0.0000   0.0000   0.4522
   0.500   0.5560   0.00898   0.00292  -0.1078  0.6513  0.6626  -0.9088   0.0000   0.0000   0.0000   0.4417
   0.750   0.5823   0.00887   0.00295  -0.1074  0.6484  0.7104  -0.9263   0.0000   0.0000   0.0000   0.4320
   1.000   0.6082   0.00876   0.00297  -0.1070  0.6458  0.7626  -0.9441   0.0000   0.0000   0.0000   0.4230
   1.250   0.6337   0.00865   0.00304  -0.1064  0.6423  0.8163  -0.9631   0.0000   0.0000   0.0000   0.4147
   1.500   0.6610   0.00853   0.00308  -0.1061  0.6392  0.8727  -0.9833   0.0000   0.0000   0.0000   0.4070
   1.750   0.7110   0.00848   0.00311  -0.1109  0.6363  0.9458  -1.0161   0.0000   0.0000   0.0000   0.4021
   2.000   0.7577   0.00852   0.00315  -0.1152  0.6325  0.9937  -1.0470   0.0000   0.0000   0.0000   0.3979
   2.250   0.7885   0.00859   0.00320  -0.1160  0.6284  1.0001  -1.0715   0.0000   0.0000   0.0000   0.3926
   2.500   0.8147   0.00865   0.00322  -0.1157  0.6252  1.0001  -1.0936   0.0000   0.0000   0.0000   0.3873
   2.750   0.8405   0.00872   0.00330  -0.1154  0.6207  1.0001  -1.1153   0.0000   0.0000   0.0000   0.3823
   3.000   0.8666   0.00879   0.00336  -0.1152  0.6163  1.0001  -1.1392   0.0000   0.0000   0.0000   0.3775
   3.250   0.8927   0.00886   0.00341  -0.1149  0.6118  1.0001  -1.1639   0.0000   0.0000   0.0000   0.3730
   3.500   0.9186   0.00894   0.00350  -0.1146  0.6066  1.0001  -1.1932   0.0000   0.0000   0.0000   0.3688
   3.750   0.9445   0.00902   0.00356  -0.1143  0.6014  1.0001  -1.2267   0.0000   0.0000   0.0000   0.3648
   4.000   0.9702   0.00910   0.00363  -0.1140  0.5948  1.0001  -1.2621   0.0000   0.0000   0.0000   0.3609
   4.250   0.9956   0.00919   0.00373  -0.1136  0.5873  1.0001  -1.2976   0.0000   0.0000   0.0000   0.3572
   4.500   1.0209   0.00930   0.00382  -0.1132  0.5797  1.0001  -1.3331   0.0000   0.0000   0.0000   0.3537
   4.750   1.0460   0.00941   0.00392  -0.1128  0.5716  1.0001  -1.3688   0.0000   0.0000   0.0000   0.3503
   5.000   1.0710   0.00954   0.00406  -0.1123  0.5630  1.0001  -1.4045   0.0000   0.0000   0.0000   0.3471
   5.250   1.0957   0.00968   0.00419  -0.1119  0.5541  1.0001  -1.4420   0.0000   0.0000   0.0000   0.3439
   5.500   1.1201   0.00984   0.00434  -0.1113  0.5451  1.0001  -1.4811   0.0000   0.0000   0.0000   0.3409
   5.750   1.1444   0.01001   0.00451  -0.1108  0.5363  1.0001  -1.5203   0.0000   0.0000   0.0000   0.3380
   6.000   1.1681   0.01020   0.00470  -0.1102  0.5262  1.0001  -1.5593   0.0000   0.0000   0.0000   0.3352
   6.250   1.1912   0.01041   0.00490  -0.1094  0.5154  1.0001  -1.5989   0.0000   0.0000   0.0000   0.3324
   6.500   1.2137   0.01066   0.00513  -0.1086  0.5042  1.0001  -1.6776   0.0000   0.0000   0.0000   0.3297
   6.750   1.2352   0.01093   0.00539  -0.1076  0.4903  1.0001  -1.7927   0.0000   0.0000   0.0000   0.3270
   7.000   1.2541   0.01130   0.00570  -0.1062  0.4729  1.0001  -1.9040   0.0000   0.0000   0.0000   0.3242
   7.250   1.2723   0.01170   0.00604  -0.1046  0.4551  1.0001  -2.0194   0.0000   0.0000   0.0000   0.3214
   7.500   1.2889   0.01215   0.00644  -0.1028  0.4364  1.0001  -2.1369   0.0000   0.0000   0.0000   0.3186
   7.750   1.3024   0.01270   0.00691  -0.1006  0.4157  1.0001  -2.2484   0.0000   0.0000   0.0000   0.3156
   8.000   1.3109   0.01334   0.00746  -0.0974  0.3917  1.0001  -2.3484   0.0000   0.0000   0.0000   0.3123
   8.250   1.3154   0.01418   0.00817  -0.0938  0.3660  1.0001  -2.4382   0.0000   0.0000   0.0000   0.3089
   8.500   1.3179   0.01525   0.00910  -0.0902  0.3367  1.0001  -2.5229   0.0000   0.0000   0.0000   0.3057
   8.750   1.3196   0.01654   0.01025  -0.0869  0.3068  1.0001  -2.6054   0.0000   0.0000   0.0000   0.3027
   9.000   1.3218   0.01799   0.01157  -0.0842  0.2788  1.0001  -2.6893   0.0000   0.0000   0.0000   0.3000
   9.250   1.3247   0.01956   0.01301  -0.0818  0.2534  1.0001  -2.7757   0.0000   0.0000   0.0000   0.2977
   9.500   1.3287   0.02115   0.01448  -0.0797  0.2288  1.0001  -2.8654   0.0000   0.0000   0.0000   0.2955
   9.750   1.3344   0.02267   0.01591  -0.0778  0.2093  1.0001  -2.9608   0.0000   0.0000   0.0000   0.2934
  10.000   1.3414   0.02410   0.01729  -0.0761  0.1925  1.0001  -3.0614   0.0000   0.0000   0.0000   0.2914
  10.250   1.3486   0.02555   0.01868  -0.0745  0.1771  1.0001  -3.1631   0.0000   0.0000   0.0000   0.2894
  10.500   1.3554   0.02703   0.02011  -0.0729  0.1616  1.0001  -3.2644   0.0000   0.0000   0.0000   0.2875
  10.750   1.3612   0.02859   0.02162  -0.0713  0.1456  1.0001  -3.3635   0.0000   0.0000   0.0000   0.2856
  11.000   1.3651   0.03032   0.02326  -0.0695  0.1271  1.0001  -3.4567   0.0000   0.0000   0.0000   0.2837
  11.250   1.3674   0.03218   0.02504  -0.0677  0.1073  1.0001  -3.5451   0.0000   0.0000   0.0000   0.2818
  11.500   1.3685   0.03416   0.02693  -0.0659  0.0895  1.0001  -3.6297   0.0000   0.0000   0.0000   0.2799
  11.750   1.3706   0.03611   0.02881  -0.0642  0.0755  1.0001  -3.7176   0.0000   0.0000   0.0000   0.2782
  12.000   1.3745   0.03796   0.03064  -0.0627  0.0656  1.0001  -3.8146   0.0000   0.0000   0.0000   0.2765
  12.250   1.3791   0.03982   0.03248  -0.0614  0.0575  1.0001  -3.9197   0.0000   0.0000   0.0000   0.2749
  12.500   1.3848   0.04163   0.03430  -0.0602  0.0508  1.0001  -4.0292   0.0000   0.0000   0.0000   0.2734
  12.750   1.3905   0.04346   0.03615  -0.0591  0.0446  1.0001  -4.1398   0.0000   0.0000   0.0000   0.2719
  13.000   1.3959   0.04538   0.03807  -0.0580  0.0389  1.0001  -4.2495   0.0000   0.0000   0.0000   0.2705
  13.250   1.4012   0.04734   0.04005  -0.0570  0.0340  1.0001  -4.3592   0.0000   0.0000   0.0000   0.2691
  13.500   1.4061   0.04937   0.04210  -0.0561  0.0302  1.0001  -4.4678   0.0000   0.0000   0.0000   0.2678
  13.750   1.4109   0.05145   0.04422  -0.0552  0.0273  1.0001  -4.5762   0.0000   0.0000   0.0000   0.2665
  14.000   1.4158   0.05357   0.04639  -0.0544  0.0253  1.0001  -4.6848   0.0000   0.0000   0.0000   0.2653
  14.250   1.4196   0.05583   0.04870  -0.0536  0.0236  1.0001  -4.7896   0.0000   0.0000   0.0000   0.2641
  14.500   1.4241   0.05806   0.05099  -0.0529  0.0224  1.0001  -4.8964   0.0000   0.0000   0.0000   0.2630
  14.750   1.4280   0.06039   0.05339  -0.0523  0.0213  1.0001  -5.0037   0.0000   0.0000   0.0000   0.2619
  15.000   1.4305   0.06290   0.05597  -0.0517  0.0204  1.0001  -5.1128   0.0000   0.0000   0.0000   0.2609
  15.250   1.4328   0.06548   0.05862  -0.0512  0.0197  1.0001  -5.2202   0.0000   0.0000   0.0000   0.2599
  15.500   1.4358   0.06802   0.06125  -0.0507  0.0190  1.0001  -5.3309   0.0000   0.0000   0.0000   0.2590
  15.750   1.4380   0.07069   0.06401  -0.0504  0.0184  1.0001  -5.4388   0.0000   0.0000   0.0000   0.2581
  16.000   1.4393   0.07351   0.06691  -0.0501  0.0178  1.0001  -5.5435   0.0000   0.0000   0.0000   0.2573
  16.250   1.4393   0.07653   0.06999  -0.0499  0.0173  1.0001  -5.6421   0.0000   0.0000   0.0000   0.2566
  16.500   1.4376   0.07979   0.07333  -0.0497  0.0169  1.0001  -5.7326   0.0000   0.0000   0.0000   0.2560
  16.750   1.4382   0.08282   0.07646  -0.0497  0.0165  1.0001  -5.8406   0.0000   0.0000   0.0000   0.2554
  17.000   1.4379   0.08601   0.07975  -0.0497  0.0162  1.0001  -5.9434   0.0000   0.0000   0.0000   0.2548
  17.250   1.4369   0.08932   0.08316  -0.0499  0.0159  1.0001  -6.0420   0.0000   0.0000   0.0000   0.2544
  17.500   1.4352   0.09275   0.08668  -0.0501  0.0156  1.0001  -6.1366   0.0000   0.0000   0.0000   0.2540
  17.750   1.4331   0.09628   0.09031  -0.0505  0.0154  1.0001  -6.2285   0.0000   0.0000   0.0000   0.2537
  18.000   1.4307   0.09990   0.09403  -0.0510  0.0151  1.0001  -6.3178   0.0000   0.0000   0.0000   0.2535
  18.250   1.4279   0.10363   0.09785  -0.0516  0.0149  1.0001  -6.4035   0.0000   0.0000   0.0000   0.2534
  18.500   1.4244   0.10747   0.10178  -0.0523  0.0147  1.0001  -6.4852   0.0000   0.0000   0.0000   0.2534
  18.750   1.4204   0.11141   0.10581  -0.0531  0.0145  1.0001  -6.5850   0.0000   0.0000   0.0000   0.2535
  19.000   1.4159   0.11549   0.10996  -0.0541  0.0143  1.0001  -6.6787   0.0000   0.0000   0.0000   0.2537
  19.500   1.4088   0.12346   0.11812  -0.0564  0.0139  1.0001  -6.8738   0.0000   0.0000   0.0000   0.2542
  19.750   1.4068   0.12724   0.12200  -0.0577  0.0137  1.0001  -6.9812   0.0000   0.0000   0.0000   0.2545
  20.000   1.4048   0.13103   0.12589  -0.0590  0.0135  1.0001  -7.0871   0.0000   0.0000   0.0000   0.2549


