xflr5 v6.61

 Calculated polar for: QX0026 v32

 1 1 Reynolds number fixed          Mach number fixed         

 xtrf =   1.000 (top)        1.000 (bottom)
 Mach =   0.000     Re =     0.500 e 6     Ncrit =   5.000

  alpha     CL        CD       CDp       Cm    Top Xtr Bot Xtr   Cpmin    Chinge    XCp    
 ------- -------- --------- --------- -------- ------- ------- -------- --------- ---------
 -10.000  -0.5659   0.02058   0.01446  -0.1081  0.7359  0.0108  -7.8184   0.0000   0.0000   0.0000   0.0420
  -9.750  -0.5431   0.01979   0.01352  -0.1079  0.7337  0.0111  -7.5409   0.0000   0.0000   0.0000   0.0345
  -9.500  -0.5197   0.01908   0.01266  -0.1077  0.7319  0.0114  -7.2608   0.0000   0.0000   0.0000   0.0259
  -9.250  -0.4964   0.01831   0.01181  -0.1075  0.7298  0.0118  -6.9791   0.0000   0.0000   0.0000   0.0165
  -9.000  -0.4718   0.01774   0.01118  -0.1074  0.7274  0.0123  -6.6842   0.0000   0.0000   0.0000   0.0053
  -8.750  -0.4467   0.01722   0.01057  -0.1073  0.7251  0.0128  -6.4090   0.0000   0.0000   0.0000  -0.0074
  -8.500  -0.4215   0.01670   0.00995  -0.1072  0.7230  0.0134  -6.1502   0.0000   0.0000   0.0000  -0.0216
  -8.250  -0.3960   0.01623   0.00936  -0.1070  0.7213  0.0141  -5.8951   0.0000   0.0000   0.0000  -0.0380
  -8.000  -0.3705   0.01573   0.00881  -0.1070  0.7193  0.0148  -5.6366   0.0000   0.0000   0.0000  -0.0568
  -7.750  -0.3442   0.01535   0.00839  -0.1069  0.7173  0.0156  -5.3703   0.0000   0.0000   0.0000  -0.0793
  -7.500  -0.3177   0.01498   0.00795  -0.1069  0.7152  0.0166  -5.1148   0.0000   0.0000   0.0000  -0.1056
  -7.250  -0.2913   0.01459   0.00748  -0.1068  0.7132  0.0175  -4.8688   0.0000   0.0000   0.0000  -0.1366
  -7.000  -0.2650   0.01421   0.00705  -0.1068  0.7114  0.0185  -4.6205   0.0000   0.0000   0.0000  -0.1737
  -6.750  -0.2382   0.01389   0.00667  -0.1068  0.7096  0.0196  -4.3756   0.0000   0.0000   0.0000  -0.2202
  -6.500  -0.2111   0.01359   0.00632  -0.1068  0.7076  0.0209  -4.1359   0.0000   0.0000   0.0000  -0.2794
  -6.250  -0.1843   0.01326   0.00598  -0.1068  0.7056  0.0224  -3.8969   0.0000   0.0000   0.0000  -0.3552
  -6.000  -0.1570   0.01299   0.00566  -0.1068  0.7037  0.0241  -3.6638   0.0000   0.0000   0.0000  -0.4589
  -5.750  -0.1299   0.01270   0.00533  -0.1068  0.7019  0.0258  -3.4367   0.0000   0.0000   0.0000  -0.6049
  -5.500  -0.1025   0.01246   0.00504  -0.1069  0.7002  0.0279  -3.2118   0.0000   0.0000   0.0000  -0.8313
  -5.250  -0.0752   0.01220   0.00476  -0.1069  0.6981  0.0301  -2.9932   0.0000   0.0000   0.0000  -1.2222
  -5.000  -0.0476   0.01197   0.00450  -0.1069  0.6957  0.0327  -2.7791   0.0000   0.0000   0.0000  -2.0721
  -4.750  -0.0201   0.01174   0.00427  -0.1070  0.6934  0.0359  -2.5694   0.0000   0.0000   0.0000  -5.2439
  -4.500   0.0076   0.01153   0.00403  -0.1070  0.6914  0.0397  -2.3649   0.0000   0.0000   0.0000  14.8351
  -4.250   0.0353   0.01133   0.00381  -0.1071  0.6898  0.0443  -2.1656   0.0000   0.0000   0.0000   3.3678
  -4.000   0.0630   0.01114   0.00363  -0.1072  0.6880  0.0506  -1.9847   0.0000   0.0000   0.0000   1.9932
  -3.500   0.1185   0.01076   0.00330  -0.1074  0.6836  0.0710  -1.6437   0.0000   0.0000   0.0000   1.1752
  -3.250   0.1462   0.01056   0.00315  -0.1075  0.6816  0.0869  -1.4835   0.0000   0.0000   0.0000   0.9993
  -3.000   0.1739   0.01037   0.00301  -0.1076  0.6799  0.1078  -1.3460   0.0000   0.0000   0.0000   0.8794
  -2.750   0.2017   0.01020   0.00289  -0.1077  0.6781  0.1318  -1.2173   0.0000   0.0000   0.0000   0.7923
  -2.500   0.2293   0.01002   0.00280  -0.1078  0.6754  0.1581  -1.0920   0.0000   0.0000   0.0000   0.7264
  -2.250   0.2569   0.00984   0.00272  -0.1079  0.6728  0.1874  -0.9776   0.0000   0.0000   0.0000   0.6748
  -2.000   0.2845   0.00965   0.00263  -0.1080  0.6704  0.2233  -0.8689   0.0000   0.0000   0.0000   0.6332
  -1.750   0.3120   0.00947   0.00257  -0.1080  0.6685  0.2660  -0.7630   0.0000   0.0000   0.0000   0.5990
  -1.500   0.3397   0.00932   0.00252  -0.1081  0.6664  0.3069  -0.7767   0.0000   0.0000   0.0000   0.5703
  -1.250   0.3672   0.00917   0.00251  -0.1082  0.6638  0.3499  -0.7927   0.0000   0.0000   0.0000   0.5459
  -1.000   0.3949   0.00905   0.00249  -0.1083  0.6611  0.3858  -0.8089   0.0000   0.0000   0.0000   0.5248
  -0.750   0.4226   0.00893   0.00246  -0.1084  0.6586  0.4233  -0.8251   0.0000   0.0000   0.0000   0.5064
  -0.500   0.4502   0.00883   0.00244  -0.1084  0.6562  0.4592  -0.8414   0.0000   0.0000   0.0000   0.4902
  -0.250   0.4777   0.00872   0.00246  -0.1084  0.6533  0.4981  -0.8580   0.0000   0.0000   0.0000   0.4760
   0.000   0.5052   0.00863   0.00247  -0.1085  0.6505  0.5348  -0.8760   0.0000   0.0000   0.0000   0.4632
   0.250   0.5325   0.00853   0.00247  -0.1084  0.6480  0.5776  -0.8939   0.0000   0.0000   0.0000   0.4517
   0.500   0.5595   0.00844   0.00249  -0.1083  0.6454  0.6228  -0.9118   0.0000   0.0000   0.0000   0.4413
   0.750   0.5863   0.00835   0.00254  -0.1081  0.6419  0.6653  -0.9294   0.0000   0.0000   0.0000   0.4318
   1.000   0.6127   0.00824   0.00258  -0.1078  0.6388  0.7141  -0.9473   0.0000   0.0000   0.0000   0.4230
   1.250   0.6386   0.00814   0.00262  -0.1074  0.6362  0.7663  -0.9667   0.0000   0.0000   0.0000   0.4149
   1.500   0.6644   0.00805   0.00268  -0.1069  0.6329  0.8172  -0.9860   0.0000   0.0000   0.0000   0.4073
   1.750   0.6911   0.00793   0.00273  -0.1065  0.6292  0.8722  -1.0058   0.0000   0.0000   0.0000   0.4002
   2.000   0.7400   0.00788   0.00278  -0.1111  0.6257  0.9477  -1.0381   0.0000   0.0000   0.0000   0.3959
   2.250   0.7869   0.00792   0.00282  -0.1154  0.6219  0.9936  -1.0715   0.0000   0.0000   0.0000   0.3922
   2.500   0.8178   0.00799   0.00288  -0.1163  0.6176  1.0001  -1.0962   0.0000   0.0000   0.0000   0.3874
   2.750   0.8439   0.00806   0.00291  -0.1160  0.6137  1.0001  -1.1182   0.0000   0.0000   0.0000   0.3823
   3.000   0.8699   0.00812   0.00298  -0.1157  0.6087  1.0001  -1.1420   0.0000   0.0000   0.0000   0.3776
   3.250   0.8959   0.00820   0.00303  -0.1154  0.6040  1.0001  -1.1667   0.0000   0.0000   0.0000   0.3731
   3.500   0.9219   0.00827   0.00311  -0.1151  0.5985  1.0001  -1.1961   0.0000   0.0000   0.0000   0.3689
   3.750   0.9475   0.00836   0.00316  -0.1148  0.5925  1.0001  -1.2297   0.0000   0.0000   0.0000   0.3648
   4.000   0.9732   0.00845   0.00325  -0.1144  0.5846  1.0001  -1.2652   0.0000   0.0000   0.0000   0.3610
   4.250   0.9986   0.00855   0.00335  -0.1141  0.5767  1.0001  -1.3007   0.0000   0.0000   0.0000   0.3573
   4.500   1.0239   0.00866   0.00344  -0.1137  0.5687  1.0001  -1.3363   0.0000   0.0000   0.0000   0.3538
   5.000   1.0737   0.00893   0.00368  -0.1128  0.5508  1.0001  -1.4075   0.0000   0.0000   0.0000   0.3472
   5.250   1.0985   0.00908   0.00383  -0.1123  0.5415  1.0001  -1.4453   0.0000   0.0000   0.0000   0.3441
   5.500   1.1231   0.00924   0.00398  -0.1118  0.5325  1.0001  -1.4847   0.0000   0.0000   0.0000   0.3411
   5.750   1.1472   0.00943   0.00416  -0.1113  0.5224  1.0001  -1.5237   0.0000   0.0000   0.0000   0.3382
   6.000   1.1706   0.00964   0.00435  -0.1106  0.5117  1.0001  -1.5625   0.0000   0.0000   0.0000   0.3353
   6.250   1.1936   0.00987   0.00456  -0.1098  0.5005  1.0001  -1.6022   0.0000   0.0000   0.0000   0.3326
   6.500   1.2155   0.01014   0.00480  -0.1089  0.4866  1.0001  -1.6842   0.0000   0.0000   0.0000   0.3298
   6.750   1.2353   0.01049   0.00510  -0.1076  0.4691  1.0001  -1.7958   0.0000   0.0000   0.0000   0.3270
   7.250   1.2722   0.01130   0.00578  -0.1046  0.4331  1.0001  -2.0240   0.0000   0.0000   0.0000   0.3214
   7.500   1.2875   0.01181   0.00622  -0.1027  0.4122  1.0001  -2.1385   0.0000   0.0000   0.0000   0.3185
   7.750   1.2982   0.01246   0.00675  -0.0999  0.3863  1.0001  -2.2427   0.0000   0.0000   0.0000   0.3154
   8.000   1.3043   0.01320   0.00737  -0.0964  0.3590  1.0001  -2.3359   0.0000   0.0000   0.0000   0.3119
   8.250   1.3075   0.01417   0.00818  -0.0927  0.3292  1.0001  -2.4220   0.0000   0.0000   0.0000   0.3085
   8.500   1.3102   0.01532   0.00918  -0.0893  0.2991  1.0001  -2.5068   0.0000   0.0000   0.0000   0.3054
   8.750   1.3138   0.01660   0.01033  -0.0864  0.2713  1.0001  -2.5941   0.0000   0.0000   0.0000   0.3026
   9.000   1.3181   0.01800   0.01161  -0.0840  0.2460  1.0001  -2.6839   0.0000   0.0000   0.0000   0.3001
   9.250   1.3231   0.01947   0.01296  -0.0819  0.2222  1.0001  -2.7763   0.0000   0.0000   0.0000   0.2978
   9.500   1.3305   0.02084   0.01425  -0.0801  0.2031  1.0001  -2.8764   0.0000   0.0000   0.0000   0.2957
   9.750   1.3387   0.02219   0.01553  -0.0785  0.1873  1.0001  -2.9799   0.0000   0.0000   0.0000   0.2937
  10.000   1.3468   0.02355   0.01685  -0.0769  0.1718  1.0001  -3.0842   0.0000   0.0000   0.0000   0.2917
  10.250   1.3542   0.02497   0.01821  -0.0753  0.1563  1.0001  -3.1872   0.0000   0.0000   0.0000   0.2897
  10.500   1.3609   0.02645   0.01963  -0.0736  0.1398  1.0001  -3.2887   0.0000   0.0000   0.0000   0.2878
  10.750   1.3652   0.02813   0.02122  -0.0718  0.1209  1.0001  -3.3832   0.0000   0.0000   0.0000   0.2859
  11.000   1.3674   0.02997   0.02296  -0.0699  0.1006  1.0001  -3.4710   0.0000   0.0000   0.0000   0.2839
  11.250   1.3695   0.03185   0.02476  -0.0681  0.0833  1.0001  -3.5588   0.0000   0.0000   0.0000   0.2820
  11.500   1.3728   0.03366   0.02651  -0.0664  0.0709  1.0001  -3.6512   0.0000   0.0000   0.0000   0.2802
  11.750   1.3777   0.03538   0.02821  -0.0649  0.0617  1.0001  -3.7495   0.0000   0.0000   0.0000   0.2785
  12.000   1.3835   0.03707   0.02989  -0.0635  0.0543  1.0001  -3.8555   0.0000   0.0000   0.0000   0.2768
  12.250   1.3897   0.03877   0.03159  -0.0623  0.0481  1.0001  -3.9676   0.0000   0.0000   0.0000   0.2752
  12.500   1.3966   0.04045   0.03329  -0.0611  0.0422  1.0001  -4.0831   0.0000   0.0000   0.0000   0.2737
  12.750   1.4029   0.04223   0.03507  -0.0600  0.0365  1.0001  -4.1968   0.0000   0.0000   0.0000   0.2722
  13.000   1.4086   0.04408   0.03693  -0.0589  0.0317  1.0001  -4.3093   0.0000   0.0000   0.0000   0.2708
  13.250   1.4145   0.04597   0.03885  -0.0579  0.0281  1.0001  -4.4225   0.0000   0.0000   0.0000   0.2694
  13.500   1.4202   0.04791   0.04082  -0.0570  0.0256  1.0001  -4.5355   0.0000   0.0000   0.0000   0.2681
  13.750   1.4253   0.04994   0.04288  -0.0561  0.0236  1.0001  -4.6466   0.0000   0.0000   0.0000   0.2668
  14.000   1.4313   0.05192   0.04492  -0.0553  0.0221  1.0001  -4.7613   0.0000   0.0000   0.0000   0.2655
  14.250   1.4363   0.05403   0.04708  -0.0545  0.0208  1.0001  -4.8730   0.0000   0.0000   0.0000   0.2643
  14.500   1.4404   0.05627   0.04937  -0.0537  0.0198  1.0001  -4.9809   0.0000   0.0000   0.0000   0.2632
  14.750   1.4457   0.05842   0.05160  -0.0531  0.0190  1.0001  -5.0979   0.0000   0.0000   0.0000   0.2620
  15.000   1.4500   0.06070   0.05396  -0.0525  0.0182  1.0001  -5.2171   0.0000   0.0000   0.0000   0.2610
  15.250   1.4533   0.06313   0.05645  -0.0519  0.0176  1.0001  -5.3330   0.0000   0.0000   0.0000   0.2600
  15.500   1.4550   0.06577   0.05915  -0.0514  0.0170  1.0001  -5.4418   0.0000   0.0000   0.0000   0.2590
  15.750   1.4581   0.06830   0.06176  -0.0510  0.0165  1.0001  -5.5564   0.0000   0.0000   0.0000   0.2581
  16.000   1.4607   0.07091   0.06446  -0.0507  0.0160  1.0001  -5.6693   0.0000   0.0000   0.0000   0.2572
  16.250   1.4626   0.07366   0.06730  -0.0504  0.0156  1.0001  -5.7790   0.0000   0.0000   0.0000   0.2564
  16.500   1.4636   0.07654   0.07025  -0.0502  0.0153  1.0001  -5.8912   0.0000   0.0000   0.0000   0.2557
  16.750   1.4638   0.07955   0.07334  -0.0500  0.0150  1.0001  -6.0013   0.0000   0.0000   0.0000   0.2550
  17.000   1.4631   0.08273   0.07660  -0.0500  0.0147  1.0001  -6.1062   0.0000   0.0000   0.0000   0.2544
  17.250   1.4614   0.08608   0.08004  -0.0501  0.0144  1.0001  -6.2052   0.0000   0.0000   0.0000   0.2539
  17.500   1.4582   0.08967   0.08371  -0.0503  0.0142  1.0001  -6.2948   0.0000   0.0000   0.0000   0.2535
  17.750   1.4552   0.09328   0.08741  -0.0505  0.0140  1.0001  -6.3832   0.0000   0.0000   0.0000   0.2532
  18.000   1.4533   0.09678   0.09102  -0.0509  0.0139  1.0001  -6.4777   0.0000   0.0000   0.0000   0.2529
  18.250   1.4509   0.10039   0.09472  -0.0514  0.0137  1.0001  -6.5687   0.0000   0.0000   0.0000   0.2527
  18.500   1.4483   0.10407   0.09850  -0.0520  0.0135  1.0001  -6.6756   0.0000   0.0000   0.0000   0.2525
  18.750   1.4454   0.10781   0.10234  -0.0527  0.0133  1.0001  -6.7872   0.0000   0.0000   0.0000   0.2525
  19.000   1.4424   0.11160   0.10623  -0.0535  0.0131  1.0001  -6.8968   0.0000   0.0000   0.0000   0.2525
  19.250   1.4393   0.11545   0.11017  -0.0544  0.0129  1.0001  -7.0048   0.0000   0.0000   0.0000   0.2526
  19.500   1.4362   0.11934   0.11415  -0.0555  0.0127  1.0001  -7.1114   0.0000   0.0000   0.0000   0.2528
  19.750   1.4330   0.12328   0.11819  -0.0567  0.0125  1.0001  -7.2156   0.0000   0.0000   0.0000   0.2531
  20.000   1.4296   0.12727   0.12226  -0.0580  0.0123  1.0001  -7.3162   0.0000   0.0000   0.0000   0.2535


