xflr5 v6.61

 Calculated polar for: QX0026 v32

 1 1 Reynolds number fixed          Mach number fixed         

 xtrf =   1.000 (top)        1.000 (bottom)
 Mach =   0.000     Re =     0.100 e 6     Ncrit =   5.000

  alpha     CL        CD       CDp       Cm    Top Xtr Bot Xtr   Cpmin    Chinge    XCp    
 ------- -------- --------- --------- -------- ------- ------- -------- --------- ---------
 -10.000  -0.2203   0.09032   0.08488  -0.0835  0.8451  0.0316  -2.5704   0.0000   0.0000   0.0000  -0.1622
  -9.750  -0.2249   0.08484   0.07941  -0.0867  0.8416  0.0319  -2.7101   0.0000   0.0000   0.0000  -0.1678
  -9.500  -0.2334   0.07832   0.07292  -0.0910  0.8375  0.0321  -2.9051   0.0000   0.0000   0.0000  -0.1707
  -9.250  -0.2481   0.06992   0.06455  -0.0971  0.8338  0.0321  -3.1895   0.0000   0.0000   0.0000  -0.1698
  -9.000  -0.2908   0.05525   0.04972  -0.1122  0.8280  0.0306  -3.8069   0.0000   0.0000   0.0000  -0.1602
  -8.750  -0.3108   0.04859   0.04262  -0.1166  0.8237  0.0306  -4.0428   0.0000   0.0000   0.0000  -0.1477
  -8.500  -0.3153   0.04411   0.03771  -0.1181  0.8190  0.0313  -4.1444   0.0000   0.0000   0.0000  -0.1462
  -8.250  -0.3141   0.03992   0.03291  -0.1185  0.8154  0.0322  -4.2340   0.0000   0.0000   0.0000  -0.1484
  -8.000  -0.3071   0.03617   0.02844  -0.1181  0.8118  0.0330  -4.3050   0.0000   0.0000   0.0000  -0.1558
  -7.750  -0.2891   0.03462   0.02675  -0.1178  0.8082  0.0339  -4.1730   0.0000   0.0000   0.0000  -0.1793
  -7.500  -0.2697   0.03317   0.02506  -0.1174  0.8052  0.0355  -4.0405   0.0000   0.0000   0.0000  -0.2079
  -7.250  -0.2516   0.03123   0.02260  -0.1169  0.8020  0.0379  -3.9685   0.0000   0.0000   0.0000  -0.2379
  -7.000  -0.2301   0.03028   0.02159  -0.1166  0.7985  0.0396  -3.7980   0.0000   0.0000   0.0000  -0.2810
  -6.750  -0.2080   0.02886   0.01987  -0.1160  0.7957  0.0416  -3.6772   0.0000   0.0000   0.0000  -0.3340
  -6.500  -0.1850   0.02780   0.01862  -0.1157  0.7932  0.0440  -3.5241   0.0000   0.0000   0.0000  -0.4035
  -6.250  -0.1627   0.02697   0.01760  -0.1152  0.7895  0.0473  -3.3726   0.0000   0.0000   0.0000  -0.4887
  -6.000  -0.1394   0.02614   0.01672  -0.1148  0.7865  0.0500  -3.2071   0.0000   0.0000   0.0000  -0.6081
  -5.750  -0.1148   0.02530   0.01570  -0.1144  0.7842  0.0537  -3.0510   0.0000   0.0000   0.0000  -0.7857
  -5.500  -0.0921   0.02477   0.01512  -0.1139  0.7809  0.0580  -2.8829   0.0000   0.0000   0.0000  -1.0344
  -5.250  -0.0690   0.02419   0.01451  -0.1134  0.7777  0.0624  -2.7197   0.0000   0.0000   0.0000  -1.4537
  -5.000  -0.0447   0.02363   0.01389  -0.1130  0.7751  0.0685  -2.5522   0.0000   0.0000   0.0000  -2.3668
  -4.750  -0.0203   0.02312   0.01333  -0.1126  0.7727  0.0757  -2.3865   0.0000   0.0000   0.0000  -5.4872
  -4.500   0.0020   0.02278   0.01295  -0.1120  0.7688  0.0849  -2.2371   0.0000   0.0000   0.0000  58.0611
  -4.250   0.0260   0.02234   0.01255  -0.1116  0.7659  0.0966  -2.0894   0.0000   0.0000   0.0000   4.6700
  -4.000   0.0515   0.02189   0.01210  -0.1114  0.7636  0.1142  -1.9395   0.0000   0.0000   0.0000   2.4742
  -3.750   0.0738   0.02163   0.01193  -0.1108  0.7599  0.1373  -1.7990   0.0000   0.0000   0.0000   1.7910
  -3.500   0.0974   0.02134   0.01175  -0.1104  0.7566  0.1702  -1.6555   0.0000   0.0000   0.0000   1.4124
  -3.250   0.1226   0.02101   0.01155  -0.1102  0.7542  0.2137  -1.5120   0.0000   0.0000   0.0000   1.1701
  -3.000   0.1474   0.02075   0.01143  -0.1099  0.7517  0.2641  -1.3800   0.0000   0.0000   0.0000   1.0118
  -2.750   0.1688   0.02073   0.01159  -0.1092  0.7475  0.3169  -1.2681   0.0000   0.0000   0.0000   0.9099
  -2.500   0.1934   0.02059   0.01159  -0.1088  0.7447  0.3726  -1.1517   0.0000   0.0000   0.0000   0.8228
  -2.250   0.2196   0.02041   0.01151  -0.1085  0.7426  0.4277  -1.0367   0.0000   0.0000   0.0000   0.7523
  -2.000   0.2408   0.02050   0.01176  -0.1076  0.7384  0.4777  -0.9414   0.0000   0.0000   0.0000   0.7035
  -1.750   0.2647   0.02046   0.01185  -0.1070  0.7350  0.5310  -0.8423   0.0000   0.0000   0.0000   0.6592
  -1.500   0.2905   0.02032   0.01182  -0.1063  0.7326  0.5866  -0.7438   0.0000   0.0000   0.0000   0.6200
  -1.250   0.3123   0.02041   0.01205  -0.1052  0.7288  0.6406  -0.7308   0.0000   0.0000   0.0000   0.5901
  -1.000   0.3344   0.02048   0.01225  -0.1041  0.7250  0.6969  -0.7443   0.0000   0.0000   0.0000   0.5634
  -0.750   0.3598   0.02039   0.01226  -0.1031  0.7226  0.7589  -0.7607   0.0000   0.0000   0.0000   0.5381
  -0.500   0.3875   0.02032   0.01228  -0.1026  0.7202  0.8268  -0.7783   0.0000   0.0000   0.0000   0.5155
  -0.250   0.4263   0.02056   0.01262  -0.1050  0.7157  0.9090  -0.7999   0.0000   0.0000   0.0000   0.4963
   0.000   0.4828   0.02059   0.01254  -0.1110  0.7133  1.0001  -0.8322   0.0000   0.0000   0.0000   0.4793
   0.250   0.5091   0.02063   0.01243  -0.1108  0.7109  1.0001  -0.8492   0.0000   0.0000   0.0000   0.4666
   0.500   0.5247   0.02117   0.01290  -0.1092  0.7052  1.0001  -0.8597   0.0000   0.0000   0.0000   0.4567
   0.750   0.5495   0.02133   0.01295  -0.1088  0.7019  1.0001  -0.8774   0.0000   0.0000   0.0000   0.4462
   1.000   0.5777   0.02136   0.01285  -0.1089  0.6998  1.0001  -0.8978   0.0000   0.0000   0.0000   0.4362
   1.250   0.5919   0.02205   0.01352  -0.1072  0.6935  1.0001  -0.9073   0.0000   0.0000   0.0000   0.4284
   1.500   0.6187   0.02215   0.01353  -0.1070  0.6907  1.0001  -0.9266   0.0000   0.0000   0.0000   0.4200
   1.750   0.6397   0.02253   0.01387  -0.1062  0.6862  1.0001  -0.9426   0.0000   0.0000   0.0000   0.4126
   2.000   0.6616   0.02285   0.01414  -0.1054  0.6815  1.0001  -0.9605   0.0000   0.0000   0.0000   0.4056
   2.250   0.6910   0.02281   0.01403  -0.1055  0.6791  1.0001  -0.9842   0.0000   0.0000   0.0000   0.3987
   2.500   0.7055   0.02351   0.01474  -0.1039  0.6724  1.0001  -0.9964   0.0000   0.0000   0.0000   0.3928
   2.750   0.7329   0.02358   0.01477  -0.1038  0.6694  1.0001  -1.0197   0.0000   0.0000   0.0000   0.3869
   3.250   0.7753   0.02430   0.01548  -0.1021  0.6596  1.0001  -1.0598   0.0000   0.0000   0.0000   0.3762
   3.500   0.8066   0.02413   0.01527  -0.1024  0.6573  1.0001  -1.0908   0.0000   0.0000   0.0000   0.3712
   3.750   0.8187   0.02491   0.01609  -0.1004  0.6495  1.0001  -1.1093   0.0000   0.0000   0.0000   0.3666
   4.000   0.8494   0.02475   0.01592  -0.1007  0.6470  1.0001  -1.1443   0.0000   0.0000   0.0000   0.3621
   4.250   0.8617   0.02553   0.01675  -0.0987  0.6394  1.0001  -1.1658   0.0000   0.0000   0.0000   0.3579
   4.500   0.8927   0.02530   0.01652  -0.0990  0.6365  1.0001  -1.2046   0.0000   0.0000   0.0000   0.3538
   4.750   0.9052   0.02602   0.01728  -0.0970  0.6287  1.0001  -1.2276   0.0000   0.0000   0.0000   0.3498
   5.000   0.9366   0.02574   0.01703  -0.0973  0.6257  1.0001  -1.2682   0.0000   0.0000   0.0000   0.3461
   5.250   0.9478   0.02648   0.01783  -0.0951  0.6174  1.0001  -1.2902   0.0000   0.0000   0.0000   0.3423
   5.500   0.9812   0.02604   0.01741  -0.0956  0.6145  1.0001  -1.3332   0.0000   0.0000   0.0000   0.3390
   5.750   0.9920   0.02673   0.01816  -0.0933  0.6058  1.0001  -1.3557   0.0000   0.0000   0.0000   0.3353
   6.250   1.0384   0.02670   0.01823  -0.0916  0.5938  1.0001  -1.4307   0.0000   0.0000   0.0000   0.3288
   6.500   1.0487   0.02727   0.01887  -0.0892  0.5847  1.0001  -1.4558   0.0000   0.0000   0.0000   0.3252
   6.750   1.0635   0.02768   0.01935  -0.0874  0.5762  1.0001  -1.4853   0.0000   0.0000   0.0000   0.3220
   7.000   1.0961   0.02710   0.01882  -0.0875  0.5713  1.0001  -1.5346   0.0000   0.0000   0.0000   0.3193
   7.250   1.1070   0.02778   0.01957  -0.0854  0.5616  1.0001  -1.5743   0.0000   0.0000   0.0000   0.3163
   7.500   1.1205   0.02838   0.02024  -0.0838  0.5523  1.0001  -1.6652   0.0000   0.0000   0.0000   0.3134
   7.750   1.1365   0.02886   0.02081  -0.0824  0.5430  1.0001  -1.7650   0.0000   0.0000   0.0000   0.3108
   8.000   1.1546   0.02921   0.02124  -0.0812  0.5337  1.0001  -1.8721   0.0000   0.0000   0.0000   0.3082
   8.250   1.1756   0.02937   0.02146  -0.0802  0.5248  1.0001  -1.9885   0.0000   0.0000   0.0000   0.3058
   8.500   1.2020   0.02914   0.02132  -0.0796  0.5166  1.0001  -2.1215   0.0000   0.0000   0.0000   0.3034
   8.750   1.2196   0.02956   0.02181  -0.0784  0.5060  1.0001  -2.2380   0.0000   0.0000   0.0000   0.3011
   9.000   1.2380   0.02992   0.02225  -0.0773  0.4949  1.0001  -2.3615   0.0000   0.0000   0.0000   0.2988
   9.250   1.2515   0.03066   0.02306  -0.0758  0.4821  1.0001  -2.4723   0.0000   0.0000   0.0000   0.2965
   9.500   1.2678   0.03119   0.02366  -0.0745  0.4691  1.0001  -2.5933   0.0000   0.0000   0.0000   0.2943
   9.750   1.2851   0.03161   0.02413  -0.0732  0.4551  1.0001  -2.7194   0.0000   0.0000   0.0000   0.2921
  10.000   1.3002   0.03214   0.02467  -0.0717  0.4381  1.0001  -2.8411   0.0000   0.0000   0.0000   0.2898
  10.250   1.3123   0.03284   0.02533  -0.0700  0.4177  1.0001  -2.9560   0.0000   0.0000   0.0000   0.2875
  10.500   1.3189   0.03403   0.02647  -0.0680  0.3957  1.0001  -3.0541   0.0000   0.0000   0.0000   0.2853
  10.750   1.3262   0.03522   0.02761  -0.0661  0.3747  1.0001  -3.1550   0.0000   0.0000   0.0000   0.2831
  11.000   1.3325   0.03658   0.02894  -0.0643  0.3556  1.0001  -3.2528   0.0000   0.0000   0.0000   0.2811
  11.250   1.3371   0.03809   0.03042  -0.0624  0.3358  1.0001  -3.3456   0.0000   0.0000   0.0000   0.2790
  11.500   1.3393   0.03985   0.03213  -0.0605  0.3151  1.0001  -3.4309   0.0000   0.0000   0.0000   0.2771
  11.750   1.3401   0.04174   0.03395  -0.0587  0.2944  1.0001  -3.5118   0.0000   0.0000   0.0000   0.2752
  12.500   1.3377   0.04833   0.04038  -0.0537  0.2355  1.0001  -3.7410   0.0000   0.0000   0.0000   0.2700
  13.000   1.3336   0.05345   0.04544  -0.0510  0.1980  1.0001  -3.8904   0.0000   0.0000   0.0000   0.2671
  13.250   1.3303   0.05629   0.04824  -0.0499  0.1787  1.0001  -3.9592   0.0000   0.0000   0.0000   0.2658
  13.500   1.3262   0.05932   0.05123  -0.0489  0.1590  1.0001  -4.0235   0.0000   0.0000   0.0000   0.2647
  13.750   1.3215   0.06253   0.05438  -0.0480  0.1388  1.0001  -4.0842   0.0000   0.0000   0.0000   0.2636
  14.000   1.3156   0.06595   0.05773  -0.0473  0.1202  1.0001  -4.1385   0.0000   0.0000   0.0000   0.2627
  14.250   1.3097   0.06949   0.06121  -0.0467  0.1040  1.0001  -4.1909   0.0000   0.0000   0.0000   0.2619
  14.500   1.3033   0.07316   0.06483  -0.0462  0.0917  1.0001  -4.2395   0.0000   0.0000   0.0000   0.2612
  14.750   1.2977   0.07683   0.06850  -0.0459  0.0819  1.0001  -4.2886   0.0000   0.0000   0.0000   0.2606
  15.000   1.2918   0.08064   0.07232  -0.0457  0.0746  1.0001  -4.3341   0.0000   0.0000   0.0000   0.2601
  15.250   1.2862   0.08448   0.07620  -0.0457  0.0687  1.0001  -4.3789   0.0000   0.0000   0.0000   0.2597
  15.500   1.2813   0.08831   0.08009  -0.0458  0.0635  1.0001  -4.4241   0.0000   0.0000   0.0000   0.2594
  15.750   1.2769   0.09214   0.08400  -0.0460  0.0590  1.0001  -4.4759   0.0000   0.0000   0.0000   0.2591
  16.000   1.2726   0.09599   0.08793  -0.0463  0.0553  1.0001  -4.5272   0.0000   0.0000   0.0000   0.2590
  16.250   1.2678   0.09998   0.09196  -0.0468  0.0525  1.0001  -4.5762   0.0000   0.0000   0.0000   0.2590
  16.500   1.2656   0.10362   0.09572  -0.0473  0.0495  1.0001  -4.6322   0.0000   0.0000   0.0000   0.2589
  16.750   1.2628   0.10735   0.09950  -0.0479  0.0474  1.0001  -4.6868   0.0000   0.0000   0.0000   0.2589
  17.000   1.2628   0.11068   0.10295  -0.0483  0.0451  1.0001  -4.7492   0.0000   0.0000   0.0000   0.2587
  17.250   1.2623   0.11405   0.10637  -0.0490  0.0435  1.0001  -4.8140   0.0000   0.0000   0.0000   0.2587
  17.500   1.2644   0.11701   0.10944  -0.0494  0.0416  1.0001  -4.8907   0.0000   0.0000   0.0000   0.2584
  17.750   1.2664   0.12000   0.11252  -0.0500  0.0400  1.0001  -4.9740   0.0000   0.0000   0.0000   0.2582
  18.000   1.2687   0.12289   0.11540  -0.0507  0.0387  1.0001  -5.0650   0.0000   0.0000   0.0000   0.2581
  18.250   1.2724   0.12566   0.11835  -0.0513  0.0371  1.0001  -5.1500   0.0000   0.0000   0.0000   0.2579
  18.500   1.2755   0.12854   0.12132  -0.0521  0.0358  1.0001  -5.2385   0.0000   0.0000   0.0000   0.2578
  18.750   1.2795   0.13116   0.12397  -0.0528  0.0347  1.0001  -5.3390   0.0000   0.0000   0.0000   0.2577
  19.000   1.2842   0.13373   0.12666  -0.0535  0.0337  1.0001  -5.4317   0.0000   0.0000   0.0000   0.2574
  19.250   1.2885   0.13638   0.12946  -0.0542  0.0328  1.0001  -5.5277   0.0000   0.0000   0.0000   0.2573
  19.500   1.2927   0.13906   0.13226  -0.0551  0.0320  1.0001  -5.6298   0.0000   0.0000   0.0000   0.2572
  19.750   1.2972   0.14168   0.13497  -0.0560  0.0314  1.0001  -5.7521   0.0000   0.0000   0.0000   0.2571
  20.000   1.3033   0.14389   0.13722  -0.0568  0.0308  1.0001  -5.8948   0.0000   0.0000   0.0000   0.2569


