xflr5 v6.61

 Calculated polar for: QX0026 v32

 1 1 Reynolds number fixed          Mach number fixed         

 xtrf =   1.000 (top)        1.000 (bottom)
 Mach =   0.000     Re =     0.880 e 6     Ncrit =   5.000

  alpha     CL        CD       CDp       Cm    Top Xtr Bot Xtr   Cpmin    Chinge    XCp    
 ------- -------- --------- --------- -------- ------- ------- -------- --------- ---------
 -10.000  -0.5878   0.01622   0.01028  -0.1062  0.7151  0.0087  -8.2270   0.0000   0.0000   0.0000   0.0528
  -9.750  -0.5625   0.01575   0.00972  -0.1061  0.7130  0.0089  -7.9034   0.0000   0.0000   0.0000   0.0449
  -9.500  -0.5379   0.01518   0.00908  -0.1059  0.7110  0.0093  -7.5931   0.0000   0.0000   0.0000   0.0366
  -9.250  -0.5121   0.01474   0.00858  -0.1059  0.7090  0.0097  -7.2733   0.0000   0.0000   0.0000   0.0268
  -9.000  -0.4860   0.01433   0.00813  -0.1058  0.7070  0.0101  -6.9553   0.0000   0.0000   0.0000   0.0156
  -8.750  -0.4596   0.01396   0.00770  -0.1058  0.7050  0.0106  -6.6599   0.0000   0.0000   0.0000   0.0030
  -8.500  -0.4331   0.01361   0.00729  -0.1058  0.7032  0.0110  -6.3763   0.0000   0.0000   0.0000  -0.0112
  -8.250  -0.4064   0.01329   0.00690  -0.1057  0.7013  0.0114  -6.0956   0.0000   0.0000   0.0000  -0.0274
  -7.750  -0.3531   0.01259   0.00614  -0.1057  0.6977  0.0128  -5.5454   0.0000   0.0000   0.0000  -0.0674
  -7.500  -0.3259   0.01231   0.00581  -0.1057  0.6957  0.0135  -5.2739   0.0000   0.0000   0.0000  -0.0931
  -7.250  -0.2985   0.01205   0.00550  -0.1058  0.6939  0.0141  -5.0077   0.0000   0.0000   0.0000  -0.1236
  -7.000  -0.2714   0.01176   0.00519  -0.1058  0.6921  0.0151  -4.7464   0.0000   0.0000   0.0000  -0.1600
  -6.750  -0.2440   0.01152   0.00492  -0.1058  0.6905  0.0161  -4.4864   0.0000   0.0000   0.0000  -0.2051
  -6.500  -0.2164   0.01132   0.00466  -0.1059  0.6889  0.0172  -4.2329   0.0000   0.0000   0.0000  -0.2621
  -6.250  -0.1888   0.01106   0.00441  -0.1060  0.6871  0.0184  -3.9850   0.0000   0.0000   0.0000  -0.3361
  -6.000  -0.1610   0.01085   0.00417  -0.1061  0.6850  0.0197  -3.7412   0.0000   0.0000   0.0000  -0.4362
  -5.750  -0.1331   0.01066   0.00395  -0.1062  0.6828  0.0210  -3.5031   0.0000   0.0000   0.0000  -0.5788
  -5.500  -0.1055   0.01045   0.00373  -0.1062  0.6807  0.0228  -3.2705   0.0000   0.0000   0.0000  -0.7947
  -5.250  -0.0775   0.01029   0.00353  -0.1063  0.6789  0.0246  -3.0431   0.0000   0.0000   0.0000  -1.1692
  -5.000  -0.0496   0.01010   0.00333  -0.1064  0.6771  0.0269  -2.8216   0.0000   0.0000   0.0000  -1.9637
  -4.750  -0.0215   0.00993   0.00316  -0.1065  0.6752  0.0293  -2.6051   0.0000   0.0000   0.0000  -4.8638
  -4.500   0.0066   0.00976   0.00299  -0.1067  0.6732  0.0321  -2.3947   0.0000   0.0000   0.0000  16.8103
  -4.250   0.0347   0.00960   0.00283  -0.1068  0.6711  0.0356  -2.1901   0.0000   0.0000   0.0000   3.4079
  -4.000   0.0628   0.00945   0.00268  -0.1069  0.6693  0.0402  -1.9978   0.0000   0.0000   0.0000   1.9943
  -3.750   0.0909   0.00931   0.00254  -0.1070  0.6677  0.0457  -1.8217   0.0000   0.0000   0.0000   1.4545
  -3.500   0.1192   0.00916   0.00241  -0.1072  0.6656  0.0529  -1.6500   0.0000   0.0000   0.0000   1.1681
  -3.250   0.1473   0.00900   0.00230  -0.1073  0.6633  0.0634  -1.4863   0.0000   0.0000   0.0000   0.9922
  -3.000   0.1754   0.00885   0.00218  -0.1075  0.6609  0.0767  -1.3487   0.0000   0.0000   0.0000   0.8730
  -2.750   0.2034   0.00870   0.00207  -0.1076  0.6586  0.0939  -1.2186   0.0000   0.0000   0.0000   0.7869
  -2.500   0.2313   0.00854   0.00198  -0.1077  0.6566  0.1158  -1.0921   0.0000   0.0000   0.0000   0.7217
  -2.250   0.2595   0.00839   0.00191  -0.1079  0.6543  0.1384  -0.9756   0.0000   0.0000   0.0000   0.6704
  -2.000   0.2877   0.00825   0.00184  -0.1080  0.6518  0.1617  -0.8654   0.0000   0.0000   0.0000   0.6291
  -1.750   0.3157   0.00811   0.00178  -0.1082  0.6494  0.1886  -0.7652   0.0000   0.0000   0.0000   0.5952
  -1.500   0.3434   0.00796   0.00172  -0.1083  0.6471  0.2251  -0.7810   0.0000   0.0000   0.0000   0.5670
  -1.250   0.3713   0.00781   0.00168  -0.1084  0.6447  0.2623  -0.7973   0.0000   0.0000   0.0000   0.5430
  -1.000   0.3992   0.00766   0.00165  -0.1085  0.6419  0.3023  -0.8136   0.0000   0.0000   0.0000   0.5223
  -0.750   0.4272   0.00755   0.00163  -0.1087  0.6392  0.3385  -0.8300   0.0000   0.0000   0.0000   0.5042
  -0.500   0.4552   0.00746   0.00162  -0.1088  0.6367  0.3726  -0.8465   0.0000   0.0000   0.0000   0.4884
  -0.250   0.4832   0.00738   0.00162  -0.1089  0.6341  0.4045  -0.8631   0.0000   0.0000   0.0000   0.4743
   0.000   0.5114   0.00730   0.00162  -0.1091  0.6310  0.4362  -0.8815   0.0000   0.0000   0.0000   0.4618
   0.250   0.5394   0.00723   0.00163  -0.1092  0.6279  0.4683  -0.8998   0.0000   0.0000   0.0000   0.4506
   0.500   0.5672   0.00717   0.00164  -0.1093  0.6250  0.4974  -0.9181   0.0000   0.0000   0.0000   0.4404
   0.750   0.5951   0.00709   0.00167  -0.1094  0.6218  0.5362  -0.9364   0.0000   0.0000   0.0000   0.4312
   1.000   0.6228   0.00701   0.00170  -0.1095  0.6182  0.5764  -0.9547   0.0000   0.0000   0.0000   0.4228
   1.250   0.6502   0.00695   0.00173  -0.1095  0.6148  0.6153  -0.9749   0.0000   0.0000   0.0000   0.4150
   1.500   0.6775   0.00687   0.00178  -0.1094  0.6111  0.6605  -0.9950   0.0000   0.0000   0.0000   0.4079
   1.750   0.7043   0.00678   0.00183  -0.1093  0.6070  0.7094  -1.0149   0.0000   0.0000   0.0000   0.4012
   2.000   0.7306   0.00673   0.00188  -0.1090  0.6031  0.7553  -1.0346   0.0000   0.0000   0.0000   0.3949
   2.250   0.7572   0.00666   0.00195  -0.1088  0.5988  0.7988  -1.0560   0.0000   0.0000   0.0000   0.3891
   2.500   0.7828   0.00659   0.00201  -0.1083  0.5939  0.8479  -1.0777   0.0000   0.0000   0.0000   0.3835
   2.750   0.8113   0.00648   0.00208  -0.1084  0.5887  0.9161  -1.1012   0.0000   0.0000   0.0000   0.3784
   3.000   0.8702   0.00653   0.00216  -0.1154  0.5816  0.9816  -1.1439   0.0000   0.0000   0.0000   0.3772
   3.250   0.9047   0.00663   0.00224  -0.1171  0.5731  1.0001  -1.1738   0.0000   0.0000   0.0000   0.3737
   3.500   0.9302   0.00673   0.00231  -0.1167  0.5645  1.0001  -1.2031   0.0000   0.0000   0.0000   0.3694
   3.750   0.9555   0.00684   0.00239  -0.1163  0.5559  1.0001  -1.2375   0.0000   0.0000   0.0000   0.3654
   4.000   0.9805   0.00697   0.00248  -0.1158  0.5461  1.0001  -1.2726   0.0000   0.0000   0.0000   0.3615
   4.250   1.0055   0.00711   0.00259  -0.1154  0.5357  1.0001  -1.3078   0.0000   0.0000   0.0000   0.3578
   4.500   1.0304   0.00726   0.00270  -0.1149  0.5254  1.0001  -1.3431   0.0000   0.0000   0.0000   0.3543
   4.750   1.0552   0.00742   0.00283  -0.1144  0.5160  1.0001  -1.3786   0.0000   0.0000   0.0000   0.3509
   5.000   1.0797   0.00760   0.00298  -0.1139  0.5059  1.0001  -1.4139   0.0000   0.0000   0.0000   0.3477
   5.500   1.1281   0.00799   0.00330  -0.1128  0.4831  1.0001  -1.4911   0.0000   0.0000   0.0000   0.3415
   5.750   1.1514   0.00823   0.00350  -0.1121  0.4696  1.0001  -1.5296   0.0000   0.0000   0.0000   0.3386
   6.000   1.1731   0.00854   0.00374  -0.1112  0.4521  1.0001  -1.5671   0.0000   0.0000   0.0000   0.3356
   6.250   1.1939   0.00889   0.00401  -0.1101  0.4318  1.0001  -1.6050   0.0000   0.0000   0.0000   0.3327
   6.500   1.2150   0.00923   0.00429  -0.1090  0.4156  1.0001  -1.6893   0.0000   0.0000   0.0000   0.3299
   6.750   1.2346   0.00963   0.00461  -0.1077  0.3951  1.0001  -1.8004   0.0000   0.0000   0.0000   0.3271
   7.000   1.2496   0.01023   0.00505  -0.1057  0.3647  1.0001  -1.9050   0.0000   0.0000   0.0000   0.3241
   7.250   1.2620   0.01092   0.00556  -0.1032  0.3307  1.0001  -2.0101   0.0000   0.0000   0.0000   0.3209
   7.500   1.2722   0.01164   0.00611  -0.1004  0.2988  1.0001  -2.1111   0.0000   0.0000   0.0000   0.3177
   7.750   1.2798   0.01235   0.00669  -0.0971  0.2717  1.0001  -2.2068   0.0000   0.0000   0.0000   0.3143
   8.000   1.2883   0.01312   0.00734  -0.0941  0.2476  1.0001  -2.3057   0.0000   0.0000   0.0000   0.3111
   8.250   1.2967   0.01397   0.00808  -0.0914  0.2252  1.0001  -2.4054   0.0000   0.0000   0.0000   0.3082
   8.500   1.3047   0.01495   0.00894  -0.0889  0.2025  1.0001  -2.5048   0.0000   0.0000   0.0000   0.3054
   8.750   1.3134   0.01600   0.00990  -0.0868  0.1832  1.0001  -2.6068   0.0000   0.0000   0.0000   0.3029
   9.000   1.3247   0.01699   0.01083  -0.0851  0.1679  1.0001  -2.7177   0.0000   0.0000   0.0000   0.3007
   9.250   1.3353   0.01808   0.01187  -0.0835  0.1528  1.0001  -2.8276   0.0000   0.0000   0.0000   0.2985
   9.500   1.3443   0.01933   0.01304  -0.0819  0.1353  1.0001  -2.9339   0.0000   0.0000   0.0000   0.2965
   9.750   1.3512   0.02076   0.01437  -0.0801  0.1156  1.0001  -3.0344   0.0000   0.0000   0.0000   0.2944
  10.000   1.3554   0.02239   0.01589  -0.0781  0.0941  1.0001  -3.1271   0.0000   0.0000   0.0000   0.2923
  10.250   1.3603   0.02399   0.01740  -0.0762  0.0768  1.0001  -3.2227   0.0000   0.0000   0.0000   0.2902
  10.500   1.3678   0.02542   0.01878  -0.0746  0.0655  1.0001  -3.3277   0.0000   0.0000   0.0000   0.2883
  10.750   1.3764   0.02677   0.02011  -0.0731  0.0573  1.0001  -3.4372   0.0000   0.0000   0.0000   0.2864
  11.000   1.3861   0.02806   0.02139  -0.0718  0.0512  1.0001  -3.5515   0.0000   0.0000   0.0000   0.2847
  11.250   1.3957   0.02936   0.02269  -0.0705  0.0455  1.0001  -3.6665   0.0000   0.0000   0.0000   0.2829
  11.500   1.4044   0.03074   0.02406  -0.0692  0.0394  1.0001  -3.7796   0.0000   0.0000   0.0000   0.2812
  11.750   1.4123   0.03218   0.02549  -0.0679  0.0334  1.0001  -3.8938   0.0000   0.0000   0.0000   0.2795
  12.000   1.4201   0.03366   0.02696  -0.0665  0.0285  1.0001  -4.0141   0.0000   0.0000   0.0000   0.2778
  12.250   1.4281   0.03515   0.02846  -0.0653  0.0251  1.0001  -4.1365   0.0000   0.0000   0.0000   0.2762
  12.500   1.4363   0.03666   0.02999  -0.0642  0.0227  1.0001  -4.2605   0.0000   0.0000   0.0000   0.2747
  12.750   1.4448   0.03817   0.03153  -0.0631  0.0207  1.0001  -4.3869   0.0000   0.0000   0.0000   0.2732
  13.000   1.4535   0.03971   0.03310  -0.0621  0.0191  1.0001  -4.5148   0.0000   0.0000   0.0000   0.2717
  13.250   1.4618   0.04130   0.03473  -0.0611  0.0177  1.0001  -4.6427   0.0000   0.0000   0.0000   0.2703
  13.500   1.4697   0.04295   0.03641  -0.0601  0.0167  1.0001  -4.7696   0.0000   0.0000   0.0000   0.2689
  13.750   1.4781   0.04459   0.03809  -0.0593  0.0158  1.0001  -4.8995   0.0000   0.0000   0.0000   0.2676
  14.000   1.4856   0.04634   0.03989  -0.0584  0.0150  1.0001  -5.0273   0.0000   0.0000   0.0000   0.2663
  14.250   1.4923   0.04819   0.04177  -0.0575  0.0143  1.0001  -5.1529   0.0000   0.0000   0.0000   0.2650
  14.500   1.4991   0.05004   0.04368  -0.0567  0.0138  1.0001  -5.2810   0.0000   0.0000   0.0000   0.2638
  14.750   1.5059   0.05193   0.04563  -0.0560  0.0134  1.0001  -5.4182   0.0000   0.0000   0.0000   0.2626
  15.000   1.5123   0.05389   0.04765  -0.0553  0.0131  1.0001  -5.5542   0.0000   0.0000   0.0000   0.2614
  15.250   1.5179   0.05596   0.04976  -0.0546  0.0128  1.0001  -5.6880   0.0000   0.0000   0.0000   0.2603
  15.500   1.5226   0.05813   0.05200  -0.0540  0.0125  1.0001  -5.8183   0.0000   0.0000   0.0000   0.2592
  15.750   1.5268   0.06041   0.05433  -0.0534  0.0122  1.0001  -5.9466   0.0000   0.0000   0.0000   0.2582
  16.000   1.5302   0.06279   0.05678  -0.0528  0.0120  1.0001  -6.0719   0.0000   0.0000   0.0000   0.2572
  16.250   1.5324   0.06535   0.05940  -0.0523  0.0117  1.0001  -6.1992   0.0000   0.0000   0.0000   0.2562
  16.500   1.5338   0.06803   0.06214  -0.0519  0.0115  1.0001  -6.3225   0.0000   0.0000   0.0000   0.2553
  16.750   1.5365   0.07060   0.06479  -0.0515  0.0114  1.0001  -6.4538   0.0000   0.0000   0.0000   0.2544
  17.000   1.5386   0.07328   0.06755  -0.0512  0.0113  1.0001  -6.5828   0.0000   0.0000   0.0000   0.2536
  17.250   1.5402   0.07604   0.07039  -0.0510  0.0111  1.0001  -6.7099   0.0000   0.0000   0.0000   0.2528
  17.500   1.5411   0.07891   0.07333  -0.0509  0.0109  1.0001  -6.8336   0.0000   0.0000   0.0000   0.2521
  17.750   1.5414   0.08189   0.07639  -0.0508  0.0108  1.0001  -6.9552   0.0000   0.0000   0.0000   0.2515
  18.000   1.5411   0.08499   0.07957  -0.0508  0.0106  1.0001  -7.0998   0.0000   0.0000   0.0000   0.2509
  18.250   1.5400   0.08822   0.08289  -0.0509  0.0105  1.0001  -7.2392   0.0000   0.0000   0.0000   0.2503
  18.500   1.5381   0.09159   0.08635  -0.0511  0.0103  1.0001  -7.3734   0.0000   0.0000   0.0000   0.2499
  18.750   1.5356   0.09508   0.08992  -0.0514  0.0102  1.0001  -7.5020   0.0000   0.0000   0.0000   0.2495
  19.000   1.5324   0.09870   0.09362  -0.0519  0.0101  1.0001  -7.6259   0.0000   0.0000   0.0000   0.2492
  19.250   1.5287   0.10244   0.09744  -0.0524  0.0100  1.0001  -7.7451   0.0000   0.0000   0.0000   0.2490
  19.500   1.5245   0.10629   0.10137  -0.0531  0.0099  1.0001  -7.8591   0.0000   0.0000   0.0000   0.2489
  19.750   1.5196   0.11026   0.10543  -0.0539  0.0097  1.0001  -7.9661   0.0000   0.0000   0.0000   0.2489
  20.000   1.5140   0.11438   0.10964  -0.0549  0.0096  1.0001  -8.0661   0.0000   0.0000   0.0000   0.2490


