xflr5 v6.61

 Calculated polar for: QX0026 v32

 1 1 Reynolds number fixed          Mach number fixed         

 xtrf =   1.000 (top)        1.000 (bottom)
 Mach =   0.000     Re =     0.180 e 6     Ncrit =   5.000

  alpha     CL        CD       CDp       Cm    Top Xtr Bot Xtr   Cpmin    Chinge    XCp    
 ------- -------- --------- --------- -------- ------- ------- -------- --------- ---------
 -10.000  -0.4379   0.04320   0.03802  -0.1115  0.7912  0.0179  -5.7568   0.0000   0.0000   0.0000  -0.0247
  -9.750  -0.4342   0.04061   0.03523  -0.1127  0.7878  0.0182  -5.6776   0.0000   0.0000   0.0000  -0.0291
  -9.500  -0.4279   0.03807   0.03242  -0.1133  0.7849  0.0187  -5.5946   0.0000   0.0000   0.0000  -0.0339
  -9.250  -0.4208   0.03522   0.02921  -0.1136  0.7820  0.0192  -5.5396   0.0000   0.0000   0.0000  -0.0388
  -9.000  -0.4116   0.03224   0.02576  -0.1135  0.7788  0.0199  -5.5004   0.0000   0.0000   0.0000  -0.0445
  -8.750  -0.3988   0.02950   0.02248  -0.1131  0.7761  0.0206  -5.4476   0.0000   0.0000   0.0000  -0.0523
  -8.500  -0.3802   0.02788   0.02059  -0.1127  0.7739  0.0212  -5.3048   0.0000   0.0000   0.0000  -0.0656
  -8.250  -0.3588   0.02683   0.01943  -0.1126  0.7711  0.0219  -5.1123   0.0000   0.0000   0.0000  -0.0830
  -8.000  -0.3370   0.02574   0.01815  -0.1123  0.7681  0.0230  -4.9337   0.0000   0.0000   0.0000  -0.1030
  -7.750  -0.3149   0.02450   0.01653  -0.1119  0.7656  0.0246  -4.7892   0.0000   0.0000   0.0000  -0.1257
  -7.500  -0.2914   0.02377   0.01577  -0.1118  0.7635  0.0258  -4.5669   0.0000   0.0000   0.0000  -0.1545
  -7.250  -0.2677   0.02294   0.01481  -0.1115  0.7608  0.0272  -4.3775   0.0000   0.0000   0.0000  -0.1885
  -7.000  -0.2439   0.02198   0.01362  -0.1112  0.7582  0.0287  -4.2150   0.0000   0.0000   0.0000  -0.2289
  -6.750  -0.2195   0.02137   0.01300  -0.1111  0.7558  0.0303  -3.9995   0.0000   0.0000   0.0000  -0.2803
  -6.500  -0.1944   0.02073   0.01219  -0.1108  0.7537  0.0327  -3.8072   0.0000   0.0000   0.0000  -0.3462
  -6.250  -0.1697   0.02010   0.01152  -0.1106  0.7515  0.0345  -3.6089   0.0000   0.0000   0.0000  -0.4303
  -6.000  -0.1449   0.01954   0.01088  -0.1104  0.7486  0.0368  -3.4195   0.0000   0.0000   0.0000  -0.5438
  -5.750  -0.1197   0.01904   0.01034  -0.1102  0.7463  0.0396  -3.2221   0.0000   0.0000   0.0000  -0.7073
  -5.500  -0.0940   0.01856   0.00976  -0.1100  0.7442  0.0429  -3.0321   0.0000   0.0000   0.0000  -0.9638
  -5.250  -0.0683   0.01810   0.00925  -0.1098  0.7424  0.0462  -2.8389   0.0000   0.0000   0.0000  -1.4156
  -5.000  -0.0429   0.01771   0.00885  -0.1096  0.7396  0.0506  -2.6500   0.0000   0.0000   0.0000  -2.3930
  -4.750  -0.0172   0.01734   0.00846  -0.1095  0.7369  0.0559  -2.4643   0.0000   0.0000   0.0000  -6.3095
  -4.500   0.0089   0.01699   0.00807  -0.1093  0.7346  0.0628  -2.2801   0.0000   0.0000   0.0000  12.9345
  -4.250   0.0354   0.01665   0.00769  -0.1092  0.7326  0.0719  -2.1111   0.0000   0.0000   0.0000   3.4262
  -4.000   0.0615   0.01633   0.00739  -0.1091  0.7302  0.0846  -1.9487   0.0000   0.0000   0.0000   2.0709
  -3.750   0.0872   0.01604   0.00717  -0.1090  0.7273  0.1019  -1.7905   0.0000   0.0000   0.0000   1.5308
  -3.500   0.1134   0.01576   0.00696  -0.1089  0.7248  0.1268  -1.6330   0.0000   0.0000   0.0000   1.2321
  -3.250   0.1401   0.01549   0.00676  -0.1089  0.7228  0.1583  -1.4823   0.0000   0.0000   0.0000   1.0437
  -3.000   0.1669   0.01521   0.00656  -0.1089  0.7211  0.1959  -1.3459   0.0000   0.0000   0.0000   0.9148
  -2.750   0.1922   0.01501   0.00653  -0.1087  0.7180  0.2387  -1.2252   0.0000   0.0000   0.0000   0.8255
  -2.500   0.2180   0.01481   0.00649  -0.1086  0.7153  0.2861  -1.1056   0.0000   0.0000   0.0000   0.7558
  -2.250   0.2443   0.01462   0.00643  -0.1084  0.7131  0.3363  -0.9939   0.0000   0.0000   0.0000   0.7000
  -2.000   0.2711   0.01444   0.00635  -0.1083  0.7112  0.3849  -0.8871   0.0000   0.0000   0.0000   0.6544
  -1.750   0.2969   0.01433   0.00636  -0.1081  0.7083  0.4302  -0.7851   0.0000   0.0000   0.0000   0.6177
  -1.500   0.3221   0.01422   0.00639  -0.1077  0.7050  0.4754  -0.7553   0.0000   0.0000   0.0000   0.5871
  -1.250   0.3482   0.01408   0.00638  -0.1074  0.7024  0.5228  -0.7704   0.0000   0.0000   0.0000   0.5603
  -1.000   0.3746   0.01393   0.00634  -0.1070  0.7004  0.5721  -0.7859   0.0000   0.0000   0.0000   0.5369
  -0.750   0.3995   0.01386   0.00642  -0.1065  0.6976  0.6206  -0.8001   0.0000   0.0000   0.0000   0.5171
  -0.500   0.4239   0.01381   0.00653  -0.1058  0.6944  0.6717  -0.8154   0.0000   0.0000   0.0000   0.4995
  -0.250   0.4495   0.01371   0.00656  -0.1051  0.6919  0.7242  -0.8322   0.0000   0.0000   0.0000   0.4834
   0.000   0.4763   0.01357   0.00652  -0.1046  0.6898  0.7797  -0.8500   0.0000   0.0000   0.0000   0.4687
   0.250   0.5045   0.01352   0.00661  -0.1045  0.6864  0.8419  -0.8679   0.0000   0.0000   0.0000   0.4557
   0.500   0.5467   0.01347   0.00666  -0.1073  0.6831  0.9121  -0.8934   0.0000   0.0000   0.0000   0.4444
   0.750   0.5991   0.01345   0.00659  -0.1125  0.6807  0.9806  -0.9249   0.0000   0.0000   0.0000   0.4356
   1.000   0.6345   0.01349   0.00654  -0.1143  0.6787  1.0001  -0.9493   0.0000   0.0000   0.0000   0.4275
   1.250   0.6573   0.01367   0.00671  -0.1136  0.6747  1.0001  -0.9661   0.0000   0.0000   0.0000   0.4198
   1.500   0.6822   0.01378   0.00676  -0.1132  0.6712  1.0001  -0.9845   0.0000   0.0000   0.0000   0.4126
   1.750   0.7091   0.01380   0.00672  -0.1130  0.6685  1.0001  -1.0044   0.0000   0.0000   0.0000   0.4057
   2.000   0.7332   0.01396   0.00686  -0.1125  0.6645  1.0001  -1.0235   0.0000   0.0000   0.0000   0.3994
   2.250   0.7581   0.01409   0.00697  -0.1121  0.6608  1.0001  -1.0442   0.0000   0.0000   0.0000   0.3935
   2.500   0.7852   0.01413   0.00697  -0.1120  0.6580  1.0001  -1.0666   0.0000   0.0000   0.0000   0.3880
   2.750   0.8096   0.01428   0.00712  -0.1115  0.6538  1.0001  -1.0871   0.0000   0.0000   0.0000   0.3828
   3.000   0.8348   0.01438   0.00723  -0.1111  0.6496  1.0001  -1.1107   0.0000   0.0000   0.0000   0.3779
   3.250   0.8627   0.01438   0.00718  -0.1111  0.6466  1.0001  -1.1367   0.0000   0.0000   0.0000   0.3732
   3.500   0.8858   0.01459   0.00743  -0.1104  0.6416  1.0001  -1.1631   0.0000   0.0000   0.0000   0.3688
   3.750   0.9121   0.01465   0.00749  -0.1102  0.6376  1.0001  -1.1949   0.0000   0.0000   0.0000   0.3647
   4.000   0.9377   0.01474   0.00758  -0.1099  0.6332  1.0001  -1.2290   0.0000   0.0000   0.0000   0.3607
   4.250   0.9620   0.01486   0.00774  -0.1093  0.6279  1.0001  -1.2629   0.0000   0.0000   0.0000   0.3569
   4.500   0.9889   0.01489   0.00776  -0.1091  0.6236  1.0001  -1.2996   0.0000   0.0000   0.0000   0.3533
   4.750   1.0118   0.01505   0.00798  -0.1084  0.6172  1.0001  -1.3329   0.0000   0.0000   0.0000   0.3497
   5.000   1.0369   0.01511   0.00806  -0.1079  0.6113  1.0001  -1.3685   0.0000   0.0000   0.0000   0.3464
   5.250   1.0617   0.01516   0.00813  -0.1074  0.6046  1.0001  -1.4041   0.0000   0.0000   0.0000   0.3431
   5.500   1.0848   0.01528   0.00829  -0.1066  0.5967  1.0001  -1.4409   0.0000   0.0000   0.0000   0.3399
   5.750   1.1092   0.01534   0.00838  -0.1061  0.5894  1.0001  -1.4801   0.0000   0.0000   0.0000   0.3369
   6.000   1.1338   0.01542   0.00849  -0.1055  0.5820  1.0001  -1.5196   0.0000   0.0000   0.0000   0.3340
   6.250   1.1556   0.01562   0.00875  -0.1046  0.5734  1.0001  -1.5565   0.0000   0.0000   0.0000   0.3311
   6.500   1.1781   0.01578   0.00895  -0.1037  0.5646  1.0001  -1.5956   0.0000   0.0000   0.0000   0.3283
   6.750   1.2007   0.01594   0.00914  -0.1029  0.5558  1.0001  -1.6924   0.0000   0.0000   0.0000   0.3256
   7.000   1.2231   0.01611   0.00935  -0.1020  0.5468  1.0001  -1.8094   0.0000   0.0000   0.0000   0.3230
   7.250   1.2445   0.01632   0.00960  -0.1010  0.5372  1.0001  -1.9263   0.0000   0.0000   0.0000   0.3204
   7.500   1.2647   0.01657   0.00989  -0.0998  0.5265  1.0001  -2.0425   0.0000   0.0000   0.0000   0.3178
   7.750   1.2841   0.01685   0.01020  -0.0985  0.5150  1.0001  -2.1635   0.0000   0.0000   0.0000   0.3152
   8.000   1.3021   0.01717   0.01054  -0.0969  0.5023  1.0001  -2.2862   0.0000   0.0000   0.0000   0.3125
   8.250   1.3174   0.01755   0.01093  -0.0949  0.4873  1.0001  -2.4041   0.0000   0.0000   0.0000   0.3098
   8.500   1.3295   0.01800   0.01134  -0.0924  0.4706  1.0001  -2.5151   0.0000   0.0000   0.0000   0.3068
   8.750   1.3392   0.01860   0.01188  -0.0896  0.4516  1.0001  -2.6207   0.0000   0.0000   0.0000   0.3038
   9.000   1.3465   0.01938   0.01260  -0.0867  0.4306  1.0001  -2.7204   0.0000   0.0000   0.0000   0.3009
   9.250   1.3519   0.02034   0.01348  -0.0838  0.4089  1.0001  -2.8154   0.0000   0.0000   0.0000   0.2981
   9.500   1.3556   0.02150   0.01456  -0.0810  0.3861  1.0001  -2.9058   0.0000   0.0000   0.0000   0.2954
   9.750   1.3585   0.02284   0.01583  -0.0784  0.3632  1.0001  -2.9939   0.0000   0.0000   0.0000   0.2929
  10.000   1.3603   0.02436   0.01726  -0.0759  0.3400  1.0001  -3.0788   0.0000   0.0000   0.0000   0.2905
  10.250   1.3606   0.02608   0.01888  -0.0734  0.3159  1.0001  -3.1590   0.0000   0.0000   0.0000   0.2882
  10.500   1.3596   0.02795   0.02064  -0.0710  0.2923  1.0001  -3.2357   0.0000   0.0000   0.0000   0.2859
  10.750   1.3592   0.02986   0.02245  -0.0687  0.2690  1.0001  -3.3141   0.0000   0.0000   0.0000   0.2838
  11.000   1.3591   0.03181   0.02432  -0.0667  0.2482  1.0001  -3.3931   0.0000   0.0000   0.0000   0.2818
  11.250   1.3588   0.03382   0.02625  -0.0647  0.2280  1.0001  -3.4719   0.0000   0.0000   0.0000   0.2799
  11.500   1.3588   0.03587   0.02823  -0.0628  0.2089  1.0001  -3.5513   0.0000   0.0000   0.0000   0.2780
  11.750   1.3587   0.03796   0.03025  -0.0610  0.1905  1.0001  -3.6305   0.0000   0.0000   0.0000   0.2762
  12.000   1.3597   0.04003   0.03228  -0.0594  0.1726  1.0001  -3.7129   0.0000   0.0000   0.0000   0.2745
  12.250   1.3605   0.04219   0.03438  -0.0579  0.1545  1.0001  -3.8004   0.0000   0.0000   0.0000   0.2729
  12.500   1.3603   0.04450   0.03663  -0.0565  0.1349  1.0001  -3.8850   0.0000   0.0000   0.0000   0.2714
  12.750   1.3587   0.04702   0.03907  -0.0551  0.1147  1.0001  -3.9643   0.0000   0.0000   0.0000   0.2699
  13.000   1.3564   0.04968   0.04164  -0.0538  0.0966  1.0001  -4.0400   0.0000   0.0000   0.0000   0.2685
  13.250   1.3549   0.05233   0.04423  -0.0526  0.0825  1.0001  -4.1184   0.0000   0.0000   0.0000   0.2671
  13.500   1.3543   0.05497   0.04685  -0.0515  0.0723  1.0001  -4.1991   0.0000   0.0000   0.0000   0.2659
  13.750   1.3544   0.05760   0.04949  -0.0506  0.0642  1.0001  -4.2820   0.0000   0.0000   0.0000   0.2647
  14.000   1.3545   0.06030   0.05222  -0.0498  0.0577  1.0001  -4.3639   0.0000   0.0000   0.0000   0.2636
  14.250   1.3549   0.06303   0.05500  -0.0491  0.0522  1.0001  -4.4458   0.0000   0.0000   0.0000   0.2625
  14.500   1.3549   0.06586   0.05788  -0.0485  0.0475  1.0001  -4.5253   0.0000   0.0000   0.0000   0.2616
  14.750   1.3550   0.06873   0.06083  -0.0480  0.0435  1.0001  -4.6042   0.0000   0.0000   0.0000   0.2607
  15.000   1.3552   0.07166   0.06384  -0.0476  0.0400  1.0001  -4.6824   0.0000   0.0000   0.0000   0.2598
  15.250   1.3543   0.07476   0.06701  -0.0473  0.0374  1.0001  -4.7644   0.0000   0.0000   0.0000   0.2591
  15.500   1.3531   0.07796   0.07028  -0.0471  0.0352  1.0001  -4.8449   0.0000   0.0000   0.0000   0.2584
  15.750   1.3517   0.08125   0.07366  -0.0470  0.0333  1.0001  -4.9227   0.0000   0.0000   0.0000   0.2579
  16.000   1.3500   0.08461   0.07713  -0.0470  0.0317  1.0001  -4.9995   0.0000   0.0000   0.0000   0.2574
  16.250   1.3465   0.08826   0.08084  -0.0472  0.0306  1.0001  -5.0682   0.0000   0.0000   0.0000   0.2570
  16.500   1.3448   0.09174   0.08444  -0.0474  0.0295  1.0001  -5.1395   0.0000   0.0000   0.0000   0.2567
  16.750   1.3424   0.09533   0.08814  -0.0477  0.0285  1.0001  -5.2086   0.0000   0.0000   0.0000   0.2564
  17.000   1.3397   0.09903   0.09193  -0.0482  0.0277  1.0001  -5.2786   0.0000   0.0000   0.0000   0.2563
  17.250   1.3361   0.10287   0.09584  -0.0488  0.0271  1.0001  -5.3488   0.0000   0.0000   0.0000   0.2562
  17.500   1.3335   0.10658   0.09964  -0.0494  0.0264  1.0001  -5.4208   0.0000   0.0000   0.0000   0.2562
  17.750   1.3324   0.11010   0.10328  -0.0501  0.0258  1.0001  -5.4980   0.0000   0.0000   0.0000   0.2561
  18.000   1.3314   0.11361   0.10690  -0.0508  0.0252  1.0001  -5.5760   0.0000   0.0000   0.0000   0.2561
  18.250   1.3307   0.11710   0.11048  -0.0516  0.0246  1.0001  -5.6559   0.0000   0.0000   0.0000   0.2562
  18.500   1.3301   0.12057   0.11402  -0.0526  0.0241  1.0001  -5.7373   0.0000   0.0000   0.0000   0.2563
  18.750   1.3297   0.12399   0.11749  -0.0535  0.0236  1.0001  -5.8207   0.0000   0.0000   0.0000   0.2565
  19.000   1.3303   0.12724   0.12080  -0.0545  0.0231  1.0001  -5.9090   0.0000   0.0000   0.0000   0.2565
  19.250   1.3320   0.13040   0.12410  -0.0555  0.0226  1.0001  -6.0171   0.0000   0.0000   0.0000   0.2566
  19.500   1.3336   0.13359   0.12741  -0.0566  0.0220  1.0001  -6.1332   0.0000   0.0000   0.0000   0.2568
  19.750   1.3351   0.13678   0.13070  -0.0578  0.0215  1.0001  -6.2500   0.0000   0.0000   0.0000   0.2570
  20.000   1.3371   0.13990   0.13390  -0.0591  0.0211  1.0001  -6.3699   0.0000   0.0000   0.0000   0.2572


