xflr5 v6.61

 Calculated polar for: QX0026 v32

 1 1 Reynolds number fixed          Mach number fixed         

 xtrf =   1.000 (top)        1.000 (bottom)
 Mach =   0.000     Re =     0.360 e 6     Ncrit =   5.000

  alpha     CL        CD       CDp       Cm    Top Xtr Bot Xtr   Cpmin    Chinge    XCp    
 ------- -------- --------- --------- -------- ------- ------- -------- --------- ---------
 -10.000  -0.5465   0.02437   0.01823  -0.1097  0.7508  0.0122  -7.4615   0.0000   0.0000   0.0000   0.0320
  -9.750  -0.5253   0.02340   0.01714  -0.1095  0.7481  0.0126  -7.2016   0.0000   0.0000   0.0000   0.0243
  -9.500  -0.5038   0.02245   0.01603  -0.1093  0.7457  0.0130  -6.9482   0.0000   0.0000   0.0000   0.0158
  -9.250  -0.4817   0.02151   0.01491  -0.1090  0.7436  0.0135  -6.7009   0.0000   0.0000   0.0000   0.0064
  -9.000  -0.4590   0.02064   0.01383  -0.1087  0.7418  0.0141  -6.4547   0.0000   0.0000   0.0000  -0.0044
  -8.750  -0.4356   0.01987   0.01299  -0.1086  0.7392  0.0147  -6.2023   0.0000   0.0000   0.0000  -0.0169
  -8.500  -0.4109   0.01933   0.01238  -0.1085  0.7367  0.0153  -5.9391   0.0000   0.0000   0.0000  -0.0319
  -8.250  -0.3861   0.01878   0.01172  -0.1084  0.7345  0.0162  -5.6910   0.0000   0.0000   0.0000  -0.0489
  -8.000  -0.3613   0.01817   0.01096  -0.1082  0.7326  0.0171  -5.4611   0.0000   0.0000   0.0000  -0.0681
  -7.750  -0.3365   0.01756   0.01026  -0.1081  0.7306  0.0179  -5.2280   0.0000   0.0000   0.0000  -0.0901
  -7.500  -0.3110   0.01707   0.00972  -0.1080  0.7284  0.0187  -4.9843   0.0000   0.0000   0.0000  -0.1168
  -7.250  -0.2852   0.01659   0.00917  -0.1079  0.7262  0.0198  -4.7501   0.0000   0.0000   0.0000  -0.1486
  -7.000  -0.2593   0.01614   0.00860  -0.1078  0.7242  0.0210  -4.5209   0.0000   0.0000   0.0000  -0.1870
  -6.750  -0.2332   0.01573   0.00816  -0.1077  0.7223  0.0223  -4.2802   0.0000   0.0000   0.0000  -0.2345
  -6.500  -0.2067   0.01537   0.00771  -0.1077  0.7206  0.0239  -4.0502   0.0000   0.0000   0.0000  -0.2950
  -6.250  -0.1805   0.01495   0.00725  -0.1076  0.7184  0.0254  -3.8271   0.0000   0.0000   0.0000  -0.3725
  -6.000  -0.1538   0.01462   0.00688  -0.1076  0.7163  0.0273  -3.6007   0.0000   0.0000   0.0000  -0.4789
  -5.750  -0.1270   0.01428   0.00649  -0.1075  0.7143  0.0293  -3.3824   0.0000   0.0000   0.0000  -0.6301
  -5.500  -0.1001   0.01397   0.00614  -0.1075  0.7124  0.0316  -3.1649   0.0000   0.0000   0.0000  -0.8642
  -5.250  -0.0731   0.01367   0.00578  -0.1075  0.7107  0.0341  -2.9538   0.0000   0.0000   0.0000  -1.2725
  -5.000  -0.0459   0.01341   0.00549  -0.1075  0.7085  0.0373  -2.7448   0.0000   0.0000   0.0000  -2.1695
  -4.750  -0.0189   0.01314   0.00522  -0.1075  0.7060  0.0410  -2.5409   0.0000   0.0000   0.0000  -5.6327
  -4.500   0.0084   0.01288   0.00494  -0.1075  0.7037  0.0453  -2.3419   0.0000   0.0000   0.0000  13.4289
  -4.250   0.0358   0.01264   0.00469  -0.1076  0.7017  0.0513  -2.1478   0.0000   0.0000   0.0000   3.3374
  -3.750   0.0907   0.01220   0.00426  -0.1076  0.6979  0.0702  -1.8041   0.0000   0.0000   0.0000   1.4651
  -3.500   0.1180   0.01198   0.00409  -0.1077  0.6955  0.0854  -1.6387   0.0000   0.0000   0.0000   1.1824
  -3.250   0.1453   0.01176   0.00393  -0.1078  0.6933  0.1060  -1.4813   0.0000   0.0000   0.0000   1.0061
  -3.000   0.1728   0.01154   0.00378  -0.1078  0.6914  0.1309  -1.3441   0.0000   0.0000   0.0000   0.8852
  -2.750   0.2004   0.01135   0.00365  -0.1079  0.6897  0.1589  -1.2164   0.0000   0.0000   0.0000   0.7972
  -2.500   0.2278   0.01115   0.00355  -0.1080  0.6877  0.1905  -1.0923   0.0000   0.0000   0.0000   0.7309
  -2.250   0.2549   0.01095   0.00347  -0.1080  0.6849  0.2288  -0.9794   0.0000   0.0000   0.0000   0.6791
  -2.000   0.2821   0.01075   0.00340  -0.1081  0.6823  0.2726  -0.8716   0.0000   0.0000   0.0000   0.6372
  -1.750   0.3095   0.01057   0.00333  -0.1081  0.6801  0.3167  -0.7661   0.0000   0.0000   0.0000   0.6024
  -1.500   0.3370   0.01042   0.00327  -0.1082  0.6783  0.3612  -0.7731   0.0000   0.0000   0.0000   0.5731
  -1.250   0.3642   0.01029   0.00328  -0.1082  0.6756  0.3998  -0.7888   0.0000   0.0000   0.0000   0.5484
  -1.000   0.3914   0.01018   0.00327  -0.1082  0.6730  0.4391  -0.8046   0.0000   0.0000   0.0000   0.5271
  -0.750   0.4187   0.01006   0.00325  -0.1082  0.6706  0.4787  -0.8205   0.0000   0.0000   0.0000   0.5084
  -0.500   0.4460   0.00994   0.00323  -0.1081  0.6683  0.5215  -0.8366   0.0000   0.0000   0.0000   0.4920
  -0.250   0.4728   0.00983   0.00325  -0.1080  0.6654  0.5623  -0.8534   0.0000   0.0000   0.0000   0.4775
   0.000   0.4993   0.00972   0.00328  -0.1078  0.6623  0.6076  -0.8708   0.0000   0.0000   0.0000   0.4645
   0.250   0.5259   0.00962   0.00331  -0.1075  0.6597  0.6542  -0.8883   0.0000   0.0000   0.0000   0.4527
   0.750   0.5780   0.00941   0.00339  -0.1067  0.6545  0.7519  -0.9229   0.0000   0.0000   0.0000   0.4321
   1.000   0.6033   0.00929   0.00344  -0.1061  0.6510  0.8074  -0.9404   0.0000   0.0000   0.0000   0.4229
   1.250   0.6305   0.00917   0.00345  -0.1057  0.6480  0.8645  -0.9606   0.0000   0.0000   0.0000   0.4145
   1.500   0.6775   0.00911   0.00348  -0.1098  0.6455  0.9345  -0.9915   0.0000   0.0000   0.0000   0.4085
   1.750   0.7268   0.00914   0.00353  -0.1146  0.6418  0.9903  -1.0236   0.0000   0.0000   0.0000   0.4038
   2.000   0.7593   0.00920   0.00356  -0.1158  0.6383  1.0001  -1.0470   0.0000   0.0000   0.0000   0.3983
   2.250   0.7857   0.00926   0.00356  -0.1155  0.6353  1.0001  -1.0691   0.0000   0.0000   0.0000   0.3926
   2.500   0.8111   0.00933   0.00365  -0.1152  0.6308  1.0001  -1.0904   0.0000   0.0000   0.0000   0.3872
   2.750   0.8372   0.00940   0.00370  -0.1149  0.6271  1.0001  -1.1124   0.0000   0.0000   0.0000   0.3822
   3.000   0.8634   0.00947   0.00375  -0.1147  0.6232  1.0001  -1.1364   0.0000   0.0000   0.0000   0.3775
   3.250   0.8892   0.00955   0.00384  -0.1144  0.6183  1.0001  -1.1608   0.0000   0.0000   0.0000   0.3730
   3.500   0.9155   0.00962   0.00388  -0.1141  0.6140  1.0001  -1.1904   0.0000   0.0000   0.0000   0.3687
   3.750   0.9411   0.00971   0.00399  -0.1138  0.6084  1.0001  -1.2233   0.0000   0.0000   0.0000   0.3647
   4.000   0.9671   0.00978   0.00404  -0.1135  0.6032  1.0001  -1.2588   0.0000   0.0000   0.0000   0.3608
   4.250   0.9924   0.00987   0.00415  -0.1131  0.5961  1.0001  -1.2942   0.0000   0.0000   0.0000   0.3571
   4.500   1.0177   0.00996   0.00424  -0.1127  0.5888  1.0001  -1.3298   0.0000   0.0000   0.0000   0.3536
   4.750   1.0429   0.01006   0.00432  -0.1123  0.5813  1.0001  -1.3654   0.0000   0.0000   0.0000   0.3502
   5.000   1.0678   0.01018   0.00446  -0.1119  0.5730  1.0001  -1.4010   0.0000   0.0000   0.0000   0.3469
   5.250   1.0926   0.01031   0.00460  -0.1114  0.5646  1.0001  -1.4382   0.0000   0.0000   0.0000   0.3438
   5.500   1.1170   0.01046   0.00474  -0.1109  0.5558  1.0001  -1.4774   0.0000   0.0000   0.0000   0.3408
   5.750   1.1412   0.01062   0.00489  -0.1103  0.5471  1.0001  -1.5165   0.0000   0.0000   0.0000   0.3379
   6.000   1.1650   0.01080   0.00508  -0.1097  0.5381  1.0001  -1.5555   0.0000   0.0000   0.0000   0.3350
   6.250   1.1884   0.01100   0.00528  -0.1090  0.5279  1.0001  -1.5952   0.0000   0.0000   0.0000   0.3323
   6.500   1.2111   0.01122   0.00550  -0.1082  0.5171  1.0001  -1.6691   0.0000   0.0000   0.0000   0.3296
   7.000   1.2538   0.01177   0.00603  -0.1062  0.4914  1.0001  -1.9003   0.0000   0.0000   0.0000   0.3242
   7.250   1.2721   0.01214   0.00635  -0.1046  0.4740  1.0001  -2.0139   0.0000   0.0000   0.0000   0.3214
   7.500   1.2892   0.01256   0.00673  -0.1029  0.4563  1.0001  -2.1327   0.0000   0.0000   0.0000   0.3186
   7.750   1.3039   0.01306   0.00716  -0.1008  0.4369  1.0001  -2.2473   0.0000   0.0000   0.0000   0.3157
   8.000   1.3149   0.01364   0.00766  -0.0981  0.4165  1.0001  -2.3536   0.0000   0.0000   0.0000   0.3126
   8.250   1.3217   0.01434   0.00827  -0.0947  0.3934  1.0001  -2.4499   0.0000   0.0000   0.0000   0.3093
   8.500   1.3254   0.01527   0.00908  -0.0912  0.3678  1.0001  -2.5385   0.0000   0.0000   0.0000   0.3060
   8.750   1.3271   0.01645   0.01014  -0.0877  0.3395  1.0001  -2.6215   0.0000   0.0000   0.0000   0.3029
   9.000   1.3280   0.01787   0.01142  -0.0846  0.3106  1.0001  -2.7021   0.0000   0.0000   0.0000   0.3001
   9.250   1.3291   0.01948   0.01290  -0.0819  0.2833  1.0001  -2.7833   0.0000   0.0000   0.0000   0.2976
   9.500   1.3313   0.02115   0.01444  -0.0796  0.2573  1.0001  -2.8678   0.0000   0.0000   0.0000   0.2953
   9.750   1.3344   0.02283   0.01601  -0.0775  0.2336  1.0001  -2.9553   0.0000   0.0000   0.0000   0.2931
  10.000   1.3388   0.02444   0.01754  -0.0756  0.2137  1.0001  -3.0476   0.0000   0.0000   0.0000   0.2911
  10.250   1.3443   0.02600   0.01904  -0.0739  0.1959  1.0001  -3.1437   0.0000   0.0000   0.0000   0.2891
  10.500   1.3501   0.02756   0.02054  -0.0722  0.1803  1.0001  -3.2414   0.0000   0.0000   0.0000   0.2871
  10.750   1.3560   0.02912   0.02205  -0.0706  0.1647  1.0001  -3.3404   0.0000   0.0000   0.0000   0.2852
  11.000   1.3610   0.03077   0.02365  -0.0689  0.1487  1.0001  -3.4366   0.0000   0.0000   0.0000   0.2834
  11.250   1.3648   0.03253   0.02534  -0.0672  0.1303  1.0001  -3.5296   0.0000   0.0000   0.0000   0.2815
  11.500   1.3664   0.03447   0.02720  -0.0654  0.1109  1.0001  -3.6156   0.0000   0.0000   0.0000   0.2797
  11.750   1.3669   0.03655   0.02918  -0.0637  0.0928  1.0001  -3.6979   0.0000   0.0000   0.0000   0.2779
  12.000   1.3686   0.03859   0.03116  -0.0621  0.0784  1.0001  -3.7856   0.0000   0.0000   0.0000   0.2762
  12.250   1.3715   0.04060   0.03313  -0.0607  0.0681  1.0001  -3.8836   0.0000   0.0000   0.0000   0.2746
  12.500   1.3758   0.04254   0.03507  -0.0594  0.0596  1.0001  -3.9871   0.0000   0.0000   0.0000   0.2731
  12.750   1.3799   0.04454   0.03707  -0.0582  0.0527  1.0001  -4.0906   0.0000   0.0000   0.0000   0.2716
  13.000   1.3852   0.04648   0.03903  -0.0572  0.0464  1.0001  -4.1986   0.0000   0.0000   0.0000   0.2702
  13.250   1.3901   0.04849   0.04106  -0.0562  0.0405  1.0001  -4.3056   0.0000   0.0000   0.0000   0.2688
  13.500   1.3945   0.05059   0.04318  -0.0553  0.0355  1.0001  -4.4109   0.0000   0.0000   0.0000   0.2675
  13.750   1.3988   0.05275   0.04536  -0.0544  0.0317  1.0001  -4.5160   0.0000   0.0000   0.0000   0.2663
  14.000   1.4029   0.05496   0.04762  -0.0536  0.0289  1.0001  -4.6202   0.0000   0.0000   0.0000   0.2651
  14.250   1.4061   0.05731   0.05001  -0.0528  0.0267  1.0001  -4.7207   0.0000   0.0000   0.0000   0.2639
  14.500   1.4100   0.05962   0.05239  -0.0522  0.0250  1.0001  -4.8238   0.0000   0.0000   0.0000   0.2628
  14.750   1.4124   0.06214   0.05497  -0.0515  0.0237  1.0001  -4.9211   0.0000   0.0000   0.0000   0.2618
  15.000   1.4151   0.06468   0.05758  -0.0510  0.0227  1.0001  -5.0274   0.0000   0.0000   0.0000   0.2608
  15.250   1.4177   0.06724   0.06024  -0.0505  0.0217  1.0001  -5.1341   0.0000   0.0000   0.0000   0.2598
  15.500   1.4191   0.07000   0.06307  -0.0501  0.0209  1.0001  -5.2361   0.0000   0.0000   0.0000   0.2589
  15.750   1.4191   0.07297   0.06612  -0.0498  0.0203  1.0001  -5.3316   0.0000   0.0000   0.0000   0.2582
  16.000   1.4191   0.07599   0.06922  -0.0495  0.0197  1.0001  -5.4258   0.0000   0.0000   0.0000   0.2574
  16.250   1.4199   0.07893   0.07226  -0.0494  0.0192  1.0001  -5.5239   0.0000   0.0000   0.0000   0.2567
  16.500   1.4201   0.08201   0.07544  -0.0493  0.0186  1.0001  -5.6191   0.0000   0.0000   0.0000   0.2561
  16.750   1.4196   0.08522   0.07875  -0.0494  0.0181  1.0001  -5.7189   0.0000   0.0000   0.0000   0.2556
  17.000   1.4183   0.08858   0.08219  -0.0495  0.0177  1.0001  -5.8152   0.0000   0.0000   0.0000   0.2551
  17.250   1.4156   0.09214   0.08583  -0.0498  0.0173  1.0001  -5.9036   0.0000   0.0000   0.0000   0.2548
  17.500   1.4117   0.09593   0.08970  -0.0501  0.0170  1.0001  -5.9831   0.0000   0.0000   0.0000   0.2546
  17.750   1.4090   0.09961   0.09348  -0.0506  0.0168  1.0001  -6.0666   0.0000   0.0000   0.0000   0.2544
  18.000   1.4071   0.10321   0.09719  -0.0512  0.0165  1.0001  -6.1535   0.0000   0.0000   0.0000   0.2542
  18.250   1.4047   0.10689   0.10097  -0.0518  0.0162  1.0001  -6.2372   0.0000   0.0000   0.0000   0.2542
  18.500   1.4022   0.11062   0.10481  -0.0526  0.0160  1.0001  -6.3186   0.0000   0.0000   0.0000   0.2542
  18.750   1.3997   0.11440   0.10869  -0.0535  0.0157  1.0001  -6.4095   0.0000   0.0000   0.0000   0.2543
  19.000   1.3972   0.11820   0.11259  -0.0545  0.0155  1.0001  -6.5142   0.0000   0.0000   0.0000   0.2544
  19.250   1.3949   0.12201   0.11648  -0.0556  0.0153  1.0001  -6.6189   0.0000   0.0000   0.0000   0.2547
  19.500   1.3927   0.12581   0.12038  -0.0568  0.0150  1.0001  -6.7232   0.0000   0.0000   0.0000   0.2550
  19.750   1.3905   0.12963   0.12427  -0.0581  0.0148  1.0001  -6.8273   0.0000   0.0000   0.0000   0.2554
  20.000   1.3885   0.13346   0.12819  -0.0596  0.0146  1.0001  -6.9306   0.0000   0.0000   0.0000   0.2558


