xflr5 v6.61

 Calculated polar for: QX0026 v32

 1 1 Reynolds number fixed          Mach number fixed         

 xtrf =   1.000 (top)        1.000 (bottom)
 Mach =   0.000     Re =     0.280 e 6     Ncrit =   5.000

  alpha     CL        CD       CDp       Cm    Top Xtr Bot Xtr   Cpmin    Chinge    XCp    
 ------- -------- --------- --------- -------- ------- ------- -------- --------- ---------
 -10.000  -0.5244   0.02858   0.02252  -0.1111  0.7636  0.0137  -7.0751   0.0000   0.0000   0.0000   0.0204
  -9.750  -0.5088   0.02671   0.02032  -0.1108  0.7610  0.0142  -6.9242   0.0000   0.0000   0.0000   0.0146
  -9.500  -0.4897   0.02546   0.01893  -0.1106  0.7582  0.0146  -6.6978   0.0000   0.0000   0.0000   0.0066
  -9.250  -0.4679   0.02467   0.01805  -0.1105  0.7558  0.0151  -6.4284   0.0000   0.0000   0.0000  -0.0038
  -9.000  -0.4455   0.02388   0.01712  -0.1103  0.7537  0.0157  -6.1692   0.0000   0.0000   0.0000  -0.0154
  -8.750  -0.4232   0.02293   0.01597  -0.1101  0.7515  0.0166  -5.9382   0.0000   0.0000   0.0000  -0.0281
  -8.500  -0.4007   0.02188   0.01468  -0.1098  0.7488  0.0174  -5.7562   0.0000   0.0000   0.0000  -0.0422
  -8.250  -0.3776   0.02110   0.01385  -0.1096  0.7462  0.0180  -5.5229   0.0000   0.0000   0.0000  -0.0589
  -8.000  -0.3535   0.02043   0.01307  -0.1095  0.7440  0.0188  -5.2945   0.0000   0.0000   0.0000  -0.0786
  -7.750  -0.3292   0.01973   0.01222  -0.1092  0.7422  0.0197  -5.0797   0.0000   0.0000   0.0000  -0.1013
  -7.500  -0.3045   0.01903   0.01136  -0.1090  0.7397  0.0208  -4.8751   0.0000   0.0000   0.0000  -0.1281
  -7.250  -0.2795   0.01849   0.01080  -0.1089  0.7374  0.0220  -4.6376   0.0000   0.0000   0.0000  -0.1605
  -7.000  -0.2539   0.01801   0.01023  -0.1088  0.7352  0.0235  -4.4099   0.0000   0.0000   0.0000  -0.2005
  -6.750  -0.2285   0.01746   0.00956  -0.1087  0.7333  0.0250  -4.1973   0.0000   0.0000   0.0000  -0.2487
  -6.500  -0.2028   0.01698   0.00903  -0.1086  0.7316  0.0263  -3.9739   0.0000   0.0000   0.0000  -0.3101
  -6.250  -0.1767   0.01656   0.00854  -0.1084  0.7291  0.0283  -3.7588   0.0000   0.0000   0.0000  -0.3907
  -6.000  -0.1508   0.01614   0.00809  -0.1084  0.7268  0.0303  -3.5416   0.0000   0.0000   0.0000  -0.4988
  -5.750  -0.1244   0.01576   0.00763  -0.1083  0.7248  0.0325  -3.3318   0.0000   0.0000   0.0000  -0.6550
  -5.500  -0.0981   0.01537   0.00721  -0.1082  0.7229  0.0348  -3.1227   0.0000   0.0000   0.0000  -0.8951
  -5.250  -0.0712   0.01505   0.00680  -0.1082  0.7213  0.0380  -2.9165   0.0000   0.0000   0.0000  -1.3230
  -5.000  -0.0446   0.01473   0.00647  -0.1081  0.7189  0.0415  -2.7138   0.0000   0.0000   0.0000  -2.2531
  -4.750  -0.0180   0.01442   0.00615  -0.1081  0.7164  0.0454  -2.5161   0.0000   0.0000   0.0000  -5.9485
  -4.500   0.0090   0.01414   0.00584  -0.1080  0.7141  0.0508  -2.3209   0.0000   0.0000   0.0000  12.6794
  -4.250   0.0361   0.01387   0.00555  -0.1080  0.7120  0.0577  -2.1350   0.0000   0.0000   0.0000   3.3257
  -4.000   0.0634   0.01361   0.00528  -0.1080  0.7103  0.0671  -1.9639   0.0000   0.0000   0.0000   1.9988
  -3.750   0.0902   0.01336   0.00508  -0.1080  0.7078  0.0803  -1.7980   0.0000   0.0000   0.0000   1.4767
  -3.500   0.1171   0.01312   0.00490  -0.1080  0.7054  0.0988  -1.6353   0.0000   0.0000   0.0000   1.1929
  -3.250   0.1442   0.01289   0.00473  -0.1081  0.7032  0.1230  -1.4802   0.0000   0.0000   0.0000   1.0145
  -3.000   0.1715   0.01265   0.00457  -0.1081  0.7012  0.1513  -1.3433   0.0000   0.0000   0.0000   0.8921
  -2.750   0.1989   0.01244   0.00442  -0.1082  0.6996  0.1840  -1.2165   0.0000   0.0000   0.0000   0.8030
  -2.500   0.2255   0.01223   0.00436  -0.1082  0.6971  0.2221  -1.0945   0.0000   0.0000   0.0000   0.7368
  -2.250   0.2523   0.01202   0.00429  -0.1082  0.6945  0.2663  -0.9825   0.0000   0.0000   0.0000   0.6844
  -2.000   0.2793   0.01183   0.00422  -0.1082  0.6921  0.3121  -0.8751   0.0000   0.0000   0.0000   0.6416
  -1.750   0.3066   0.01165   0.00415  -0.1082  0.6899  0.3586  -0.7698   0.0000   0.0000   0.0000   0.6061
  -1.500   0.3336   0.01151   0.00411  -0.1082  0.6875  0.4005  -0.7687   0.0000   0.0000   0.0000   0.5765
  -1.250   0.3603   0.01140   0.00412  -0.1081  0.6847  0.4413  -0.7841   0.0000   0.0000   0.0000   0.5514
  -1.000   0.3871   0.01127   0.00411  -0.1080  0.6823  0.4833  -0.7997   0.0000   0.0000   0.0000   0.5297
  -0.750   0.4141   0.01114   0.00409  -0.1078  0.6802  0.5279  -0.8155   0.0000   0.0000   0.0000   0.5106
  -0.500   0.4412   0.01102   0.00406  -0.1077  0.6783  0.5726  -0.8315   0.0000   0.0000   0.0000   0.4938
  -0.250   0.4668   0.01093   0.00414  -0.1073  0.6748  0.6185  -0.8479   0.0000   0.0000   0.0000   0.4791
   0.000   0.4927   0.01081   0.00417  -0.1069  0.6717  0.6671  -0.8650   0.0000   0.0000   0.0000   0.4657
   0.250   0.5188   0.01070   0.00418  -0.1064  0.6693  0.7153  -0.8824   0.0000   0.0000   0.0000   0.4535
   0.500   0.5447   0.01059   0.00420  -0.1059  0.6671  0.7684  -0.8997   0.0000   0.0000   0.0000   0.4423
   0.750   0.5697   0.01050   0.00430  -0.1052  0.6637  0.8257  -0.9161   0.0000   0.0000   0.0000   0.4322
   1.000   0.6026   0.01040   0.00434  -0.1060  0.6607  0.8899  -0.9381   0.0000   0.0000   0.0000   0.4232
   1.250   0.6578   0.01035   0.00430  -0.1119  0.6580  0.9573  -0.9734   0.0000   0.0000   0.0000   0.4169
   1.500   0.7015   0.01040   0.00433  -0.1155  0.6547  1.0001  -1.0023   0.0000   0.0000   0.0000   0.4112
   1.750   0.7267   0.01048   0.00439  -0.1151  0.6511  1.0001  -1.0211   0.0000   0.0000   0.0000   0.4046
   2.000   0.7528   0.01054   0.00441  -0.1149  0.6482  1.0001  -1.0412   0.0000   0.0000   0.0000   0.3985
   2.250   0.7791   0.01060   0.00443  -0.1146  0.6451  1.0001  -1.0631   0.0000   0.0000   0.0000   0.3927
   2.500   0.8042   0.01069   0.00452  -0.1142  0.6407  1.0001  -1.0842   0.0000   0.0000   0.0000   0.3873
   2.750   0.8306   0.01074   0.00455  -0.1140  0.6371  1.0001  -1.1064   0.0000   0.0000   0.0000   0.3822
   3.000   0.8567   0.01083   0.00462  -0.1137  0.6335  1.0001  -1.1303   0.0000   0.0000   0.0000   0.3775
   3.250   0.8822   0.01092   0.00473  -0.1134  0.6288  1.0001  -1.1545   0.0000   0.0000   0.0000   0.3729
   3.500   0.9089   0.01097   0.00475  -0.1132  0.6250  1.0001  -1.1843   0.0000   0.0000   0.0000   0.3687
   3.750   0.9339   0.01108   0.00490  -0.1128  0.6196  1.0001  -1.2163   0.0000   0.0000   0.0000   0.3646
   4.000   0.9601   0.01115   0.00495  -0.1126  0.6149  1.0001  -1.2515   0.0000   0.0000   0.0000   0.3607
   4.250   0.9852   0.01125   0.00507  -0.1122  0.6089  1.0001  -1.2866   0.0000   0.0000   0.0000   0.3570
   4.500   1.0113   0.01130   0.00511  -0.1119  0.6032  1.0001  -1.3228   0.0000   0.0000   0.0000   0.3535
   4.750   1.0359   0.01140   0.00524  -0.1114  0.5954  1.0001  -1.3579   0.0000   0.0000   0.0000   0.3500
   5.000   1.0607   0.01150   0.00535  -0.1109  0.5878  1.0001  -1.3934   0.0000   0.0000   0.0000   0.3467
   5.250   1.0856   0.01161   0.00546  -0.1104  0.5804  1.0001  -1.4301   0.0000   0.0000   0.0000   0.3436
   5.500   1.1099   0.01174   0.00561  -0.1099  0.5723  1.0001  -1.4690   0.0000   0.0000   0.0000   0.3406
   5.750   1.1340   0.01188   0.00577  -0.1093  0.5636  1.0001  -1.5079   0.0000   0.0000   0.0000   0.3376
   6.000   1.1578   0.01204   0.00595  -0.1087  0.5548  1.0001  -1.5469   0.0000   0.0000   0.0000   0.3347
   6.250   1.1814   0.01221   0.00613  -0.1080  0.5461  1.0001  -1.5864   0.0000   0.0000   0.0000   0.3320
   6.500   1.2045   0.01241   0.00634  -0.1073  0.5367  1.0001  -1.6490   0.0000   0.0000   0.0000   0.3293
   6.750   1.2269   0.01263   0.00658  -0.1064  0.5261  1.0001  -1.7652   0.0000   0.0000   0.0000   0.3266
   7.000   1.2485   0.01288   0.00683  -0.1054  0.5150  1.0001  -1.8821   0.0000   0.0000   0.0000   0.3240
   7.250   1.2690   0.01316   0.00711  -0.1043  0.5024  1.0001  -1.9987   0.0000   0.0000   0.0000   0.3213
   7.500   1.2875   0.01350   0.00744  -0.1028  0.4866  1.0001  -2.1188   0.0000   0.0000   0.0000   0.3186
   7.750   1.3039   0.01392   0.00780  -0.1009  0.4694  1.0001  -2.2374   0.0000   0.0000   0.0000   0.3158
   8.000   1.3175   0.01443   0.00825  -0.0987  0.4504  1.0001  -2.3505   0.0000   0.0000   0.0000   0.3129
   8.250   1.3271   0.01500   0.00876  -0.0957  0.4304  1.0001  -2.4542   0.0000   0.0000   0.0000   0.3098
   8.500   1.3344   0.01570   0.00940  -0.0925  0.4100  1.0001  -2.5528   0.0000   0.0000   0.0000   0.3066
   8.750   1.3384   0.01664   0.01023  -0.0891  0.3864  1.0001  -2.6429   0.0000   0.0000   0.0000   0.3034
   9.000   1.3408   0.01779   0.01128  -0.0858  0.3604  1.0001  -2.7287   0.0000   0.0000   0.0000   0.3005
   9.500   1.3418   0.02085   0.01410  -0.0801  0.3070  1.0001  -2.8891   0.0000   0.0000   0.0000   0.2952
   9.750   1.3420   0.02263   0.01575  -0.0776  0.2811  1.0001  -2.9684   0.0000   0.0000   0.0000   0.2929
  10.000   1.3426   0.02446   0.01747  -0.0753  0.2566  1.0001  -3.0487   0.0000   0.0000   0.0000   0.2907
  10.250   1.3444   0.02626   0.01917  -0.0732  0.2343  1.0001  -3.1332   0.0000   0.0000   0.0000   0.2886
  10.500   1.3471   0.02802   0.02085  -0.0713  0.2151  1.0001  -3.2211   0.0000   0.0000   0.0000   0.2866
  10.750   1.3507   0.02975   0.02252  -0.0695  0.1968  1.0001  -3.3119   0.0000   0.0000   0.0000   0.2847
  11.000   1.3543   0.03151   0.02421  -0.0678  0.1804  1.0001  -3.4032   0.0000   0.0000   0.0000   0.2828
  11.250   1.3583   0.03326   0.02592  -0.0661  0.1637  1.0001  -3.4961   0.0000   0.0000   0.0000   0.2810
  11.500   1.3615   0.03509   0.02770  -0.0645  0.1469  1.0001  -3.5867   0.0000   0.0000   0.0000   0.2792
  11.750   1.3634   0.03706   0.02960  -0.0629  0.1281  1.0001  -3.6733   0.0000   0.0000   0.0000   0.2774
  12.000   1.3640   0.03919   0.03165  -0.0612  0.1087  1.0001  -3.7558   0.0000   0.0000   0.0000   0.2757
  12.250   1.3639   0.04146   0.03383  -0.0596  0.0915  1.0001  -3.8417   0.0000   0.0000   0.0000   0.2741
  12.500   1.3650   0.04369   0.03600  -0.0582  0.0780  1.0001  -3.9322   0.0000   0.0000   0.0000   0.2725
  12.750   1.3670   0.04589   0.03819  -0.0570  0.0683  1.0001  -4.0262   0.0000   0.0000   0.0000   0.2710
  13.000   1.3703   0.04803   0.04034  -0.0559  0.0600  1.0001  -4.1250   0.0000   0.0000   0.0000   0.2696
  13.250   1.3733   0.05025   0.04256  -0.0548  0.0533  1.0001  -4.2226   0.0000   0.0000   0.0000   0.2683
  13.500   1.3767   0.05248   0.04481  -0.0539  0.0473  1.0001  -4.3219   0.0000   0.0000   0.0000   0.2670
  13.750   1.3804   0.05472   0.04710  -0.0531  0.0418  1.0001  -4.4221   0.0000   0.0000   0.0000   0.2658
  14.000   1.3835   0.05706   0.04948  -0.0523  0.0371  1.0001  -4.5201   0.0000   0.0000   0.0000   0.2646
  14.250   1.3861   0.05950   0.05195  -0.0516  0.0335  1.0001  -4.6162   0.0000   0.0000   0.0000   0.2635
  14.500   1.3883   0.06204   0.05453  -0.0509  0.0308  1.0001  -4.7102   0.0000   0.0000   0.0000   0.2624
  14.750   1.3908   0.06458   0.05715  -0.0503  0.0287  1.0001  -4.8042   0.0000   0.0000   0.0000   0.2614
  15.000   1.3918   0.06735   0.05997  -0.0498  0.0272  1.0001  -4.8978   0.0000   0.0000   0.0000   0.2605
  15.250   1.3931   0.07012   0.06283  -0.0494  0.0259  1.0001  -4.9949   0.0000   0.0000   0.0000   0.2596
  15.500   1.3939   0.07300   0.06581  -0.0491  0.0248  1.0001  -5.0904   0.0000   0.0000   0.0000   0.2588
  15.750   1.3934   0.07609   0.06897  -0.0489  0.0239  1.0001  -5.1796   0.0000   0.0000   0.0000   0.2581
  16.000   1.3915   0.07939   0.07234  -0.0487  0.0232  1.0001  -5.2618   0.0000   0.0000   0.0000   0.2575
  16.250   1.3914   0.08252   0.07559  -0.0486  0.0225  1.0001  -5.3498   0.0000   0.0000   0.0000   0.2569
  16.500   1.3905   0.08580   0.07898  -0.0487  0.0219  1.0001  -5.4343   0.0000   0.0000   0.0000   0.2564
  16.750   1.3890   0.08920   0.08247  -0.0488  0.0213  1.0001  -5.5187   0.0000   0.0000   0.0000   0.2560
  17.000   1.3867   0.09274   0.08610  -0.0491  0.0208  1.0001  -5.6047   0.0000   0.0000   0.0000   0.2556
  17.250   1.3833   0.09648   0.08992  -0.0495  0.0203  1.0001  -5.6842   0.0000   0.0000   0.0000   0.2554
  17.500   1.3793   0.10035   0.09387  -0.0500  0.0199  1.0001  -5.7580   0.0000   0.0000   0.0000   0.2554
  17.750   1.3782   0.10384   0.09748  -0.0505  0.0195  1.0001  -5.8454   0.0000   0.0000   0.0000   0.2552
  18.000   1.3765   0.10743   0.10118  -0.0512  0.0190  1.0001  -5.9292   0.0000   0.0000   0.0000   0.2551
  18.250   1.3747   0.11108   0.10494  -0.0519  0.0186  1.0001  -6.0112   0.0000   0.0000   0.0000   0.2551
  18.500   1.3727   0.11478   0.10873  -0.0528  0.0183  1.0001  -6.0918   0.0000   0.0000   0.0000   0.2552
  18.750   1.3709   0.11849   0.11253  -0.0538  0.0180  1.0001  -6.1715   0.0000   0.0000   0.0000   0.2553
  19.000   1.3691   0.12220   0.11633  -0.0549  0.0177  1.0001  -6.2677   0.0000   0.0000   0.0000   0.2556
  19.250   1.3673   0.12592   0.12013  -0.0561  0.0174  1.0001  -6.3714   0.0000   0.0000   0.0000   0.2559
  19.500   1.3657   0.12961   0.12389  -0.0573  0.0172  1.0001  -6.4752   0.0000   0.0000   0.0000   0.2562
  19.750   1.3643   0.13326   0.12759  -0.0586  0.0170  1.0001  -6.5793   0.0000   0.0000   0.0000   0.2566
  20.000   1.3646   0.13669   0.13112  -0.0599  0.0167  1.0001  -6.6927   0.0000   0.0000   0.0000   0.2569


