xflr5 v6.61

 Calculated polar for: QX0026 v32

 1 1 Reynolds number fixed          Mach number fixed         

 xtrf =   1.000 (top)        1.000 (bottom)
 Mach =   0.000     Re =     0.920 e 6     Ncrit =   5.000

  alpha     CL        CD       CDp       Cm    Top Xtr Bot Xtr   Cpmin    Chinge    XCp    
 ------- -------- --------- --------- -------- ------- ------- -------- --------- ---------
 -10.000  -0.5891   0.01595   0.01003  -0.1061  0.7136  0.0086  -8.2509   0.0000   0.0000   0.0000   0.0535
  -9.750  -0.5638   0.01549   0.00948  -0.1060  0.7115  0.0088  -7.9257   0.0000   0.0000   0.0000   0.0456
  -9.500  -0.5387   0.01498   0.00890  -0.1059  0.7096  0.0091  -7.6104   0.0000   0.0000   0.0000   0.0371
  -9.250  -0.5130   0.01451   0.00838  -0.1058  0.7074  0.0095  -7.2916   0.0000   0.0000   0.0000   0.0273
  -9.000  -0.4868   0.01411   0.00794  -0.1058  0.7055  0.0099  -6.9725   0.0000   0.0000   0.0000   0.0162
  -8.750  -0.4604   0.01375   0.00753  -0.1057  0.7036  0.0104  -6.6752   0.0000   0.0000   0.0000   0.0037
  -8.500  -0.4339   0.01341   0.00713  -0.1057  0.7018  0.0109  -6.3897   0.0000   0.0000   0.0000  -0.0105
  -8.250  -0.4072   0.01310   0.00674  -0.1057  0.7000  0.0113  -6.1081   0.0000   0.0000   0.0000  -0.0267
  -8.000  -0.3805   0.01273   0.00634  -0.1056  0.6982  0.0119  -5.8326   0.0000   0.0000   0.0000  -0.0452
  -7.750  -0.3535   0.01242   0.00600  -0.1057  0.6962  0.0126  -5.5554   0.0000   0.0000   0.0000  -0.0669
  -7.500  -0.3263   0.01214   0.00569  -0.1057  0.6943  0.0133  -5.2827   0.0000   0.0000   0.0000  -0.0924
  -7.250  -0.2990   0.01188   0.00538  -0.1057  0.6925  0.0140  -5.0155   0.0000   0.0000   0.0000  -0.1229
  -7.000  -0.2718   0.01161   0.00507  -0.1057  0.6908  0.0148  -4.7541   0.0000   0.0000   0.0000  -0.1592
  -6.750  -0.2444   0.01137   0.00481  -0.1058  0.6893  0.0159  -4.4939   0.0000   0.0000   0.0000  -0.2041
  -6.500  -0.2167   0.01116   0.00456  -0.1059  0.6876  0.0170  -4.2385   0.0000   0.0000   0.0000  -0.2614
  -6.250  -0.1890   0.01092   0.00431  -0.1060  0.6857  0.0181  -3.9901   0.0000   0.0000   0.0000  -0.3354
  -6.000  -0.1612   0.01071   0.00408  -0.1060  0.6835  0.0194  -3.7457   0.0000   0.0000   0.0000  -0.4351
  -5.750  -0.1334   0.01053   0.00386  -0.1061  0.6814  0.0207  -3.5072   0.0000   0.0000   0.0000  -0.5771
  -5.500  -0.1057   0.01033   0.00365  -0.1062  0.6794  0.0224  -3.2745   0.0000   0.0000   0.0000  -0.7920
  -5.250  -0.0777   0.01016   0.00345  -0.1063  0.6776  0.0243  -3.0463   0.0000   0.0000   0.0000  -1.1656
  -5.000  -0.0497   0.00997   0.00327  -0.1064  0.6757  0.0265  -2.8241   0.0000   0.0000   0.0000  -1.9625
  -4.500   0.0066   0.00964   0.00292  -0.1066  0.6717  0.0316  -2.3965   0.0000   0.0000   0.0000  16.9409
  -4.250   0.0347   0.00949   0.00277  -0.1068  0.6698  0.0349  -2.1917   0.0000   0.0000   0.0000   3.4114
  -4.000   0.0627   0.00935   0.00262  -0.1069  0.6681  0.0394  -1.9988   0.0000   0.0000   0.0000   1.9954
  -3.750   0.0910   0.00920   0.00249  -0.1070  0.6663  0.0449  -1.8220   0.0000   0.0000   0.0000   1.4532
  -3.500   0.1193   0.00905   0.00236  -0.1072  0.6642  0.0518  -1.6501   0.0000   0.0000   0.0000   1.1673
  -3.250   0.1475   0.00890   0.00224  -0.1073  0.6618  0.0618  -1.4864   0.0000   0.0000   0.0000   0.9916
  -3.000   0.1755   0.00875   0.00213  -0.1075  0.6594  0.0746  -1.3489   0.0000   0.0000   0.0000   0.8726
  -2.750   0.2035   0.00861   0.00202  -0.1076  0.6573  0.0917  -1.2187   0.0000   0.0000   0.0000   0.7866
  -2.500   0.2316   0.00844   0.00194  -0.1077  0.6552  0.1130  -1.0919   0.0000   0.0000   0.0000   0.7213
  -2.250   0.2597   0.00829   0.00186  -0.1079  0.6528  0.1352  -0.9753   0.0000   0.0000   0.0000   0.6701
  -1.750   0.3159   0.00803   0.00173  -0.1082  0.6480  0.1844  -0.7655   0.0000   0.0000   0.0000   0.5950
  -1.500   0.3437   0.00788   0.00167  -0.1083  0.6458  0.2185  -0.7812   0.0000   0.0000   0.0000   0.5668
  -1.250   0.3717   0.00772   0.00164  -0.1084  0.6431  0.2565  -0.7976   0.0000   0.0000   0.0000   0.5428
  -1.000   0.3996   0.00758   0.00161  -0.1086  0.6404  0.2948  -0.8140   0.0000   0.0000   0.0000   0.5221
  -0.750   0.4275   0.00747   0.00159  -0.1087  0.6378  0.3324  -0.8303   0.0000   0.0000   0.0000   0.5041
  -0.500   0.4554   0.00739   0.00157  -0.1088  0.6354  0.3662  -0.8467   0.0000   0.0000   0.0000   0.4883
  -0.250   0.4837   0.00729   0.00158  -0.1090  0.6325  0.3980  -0.8634   0.0000   0.0000   0.0000   0.4742
   0.000   0.5118   0.00721   0.00158  -0.1092  0.6294  0.4293  -0.8818   0.0000   0.0000   0.0000   0.4617
   0.250   0.5397   0.00714   0.00158  -0.1093  0.6264  0.4613  -0.9001   0.0000   0.0000   0.0000   0.4505
   0.500   0.5678   0.00709   0.00160  -0.1094  0.6235  0.4892  -0.9185   0.0000   0.0000   0.0000   0.4403
   0.750   0.5957   0.00701   0.00162  -0.1095  0.6201  0.5269  -0.9368   0.0000   0.0000   0.0000   0.4312
   1.000   0.6234   0.00693   0.00165  -0.1096  0.6166  0.5671  -0.9551   0.0000   0.0000   0.0000   0.4228
   1.250   0.6509   0.00688   0.00168  -0.1096  0.6133  0.6044  -0.9753   0.0000   0.0000   0.0000   0.4150
   1.500   0.6783   0.00680   0.00173  -0.1096  0.6093  0.6482  -0.9955   0.0000   0.0000   0.0000   0.4079
   1.750   0.7051   0.00672   0.00178  -0.1094  0.6052  0.6965  -1.0155   0.0000   0.0000   0.0000   0.4012
   2.000   0.7318   0.00665   0.00183  -0.1092  0.6013  0.7429  -1.0353   0.0000   0.0000   0.0000   0.3950
   2.250   0.7583   0.00659   0.00190  -0.1090  0.5967  0.7860  -1.0567   0.0000   0.0000   0.0000   0.3892
   2.500   0.7839   0.00654   0.00196  -0.1085  0.5921  0.8327  -1.0784   0.0000   0.0000   0.0000   0.3836
   2.750   0.8100   0.00643   0.00202  -0.1081  0.5864  0.8924  -1.1004   0.0000   0.0000   0.0000   0.3783
   3.000   0.8628   0.00643   0.00212  -0.1138  0.5793  0.9664  -1.1394   0.0000   0.0000   0.0000   0.3764
   3.250   0.9047   0.00654   0.00219  -0.1171  0.5703  0.9996  -1.1739   0.0000   0.0000   0.0000   0.3737
   3.500   0.9307   0.00664   0.00227  -0.1168  0.5614  1.0001  -1.2035   0.0000   0.0000   0.0000   0.3695
   3.750   0.9560   0.00676   0.00235  -0.1164  0.5524  1.0001  -1.2380   0.0000   0.0000   0.0000   0.3654
   4.000   0.9810   0.00689   0.00244  -0.1159  0.5423  1.0001  -1.2731   0.0000   0.0000   0.0000   0.3616
   4.250   1.0060   0.00703   0.00255  -0.1155  0.5316  1.0001  -1.3083   0.0000   0.0000   0.0000   0.3579
   4.500   1.0309   0.00718   0.00267  -0.1150  0.5216  1.0001  -1.3436   0.0000   0.0000   0.0000   0.3543
   4.750   1.0557   0.00734   0.00279  -0.1146  0.5122  1.0001  -1.3791   0.0000   0.0000   0.0000   0.3510
   5.000   1.0803   0.00752   0.00294  -0.1141  0.5019  1.0001  -1.4145   0.0000   0.0000   0.0000   0.3477
   5.250   1.1046   0.00771   0.00310  -0.1135  0.4904  1.0001  -1.4527   0.0000   0.0000   0.0000   0.3446
   5.500   1.1286   0.00791   0.00327  -0.1129  0.4785  1.0001  -1.4916   0.0000   0.0000   0.0000   0.3416
   5.750   1.1514   0.00817   0.00348  -0.1122  0.4643  1.0001  -1.5297   0.0000   0.0000   0.0000   0.3386
   6.000   1.1732   0.00849   0.00372  -0.1112  0.4458  1.0001  -1.5673   0.0000   0.0000   0.0000   0.3356
   6.250   1.1939   0.00885   0.00399  -0.1101  0.4263  1.0001  -1.6051   0.0000   0.0000   0.0000   0.3327
   6.500   1.2151   0.00918   0.00426  -0.1091  0.4099  1.0001  -1.6899   0.0000   0.0000   0.0000   0.3299
   6.750   1.2339   0.00962   0.00460  -0.1076  0.3872  1.0001  -1.7990   0.0000   0.0000   0.0000   0.3271
   7.000   1.2484   0.01024   0.00506  -0.1055  0.3546  1.0001  -1.9028   0.0000   0.0000   0.0000   0.3240
   7.250   1.2608   0.01093   0.00557  -0.1030  0.3211  1.0001  -2.0079   0.0000   0.0000   0.0000   0.3209
   7.500   1.2712   0.01163   0.00611  -0.1002  0.2906  1.0001  -2.1094   0.0000   0.0000   0.0000   0.3176
   7.750   1.2789   0.01235   0.00669  -0.0970  0.2640  1.0001  -2.2052   0.0000   0.0000   0.0000   0.3142
   8.000   1.2881   0.01309   0.00732  -0.0941  0.2405  1.0001  -2.3060   0.0000   0.0000   0.0000   0.3111
   8.250   1.2967   0.01393   0.00805  -0.0915  0.2186  1.0001  -2.4063   0.0000   0.0000   0.0000   0.3082
   8.500   1.3048   0.01490   0.00891  -0.0889  0.1962  1.0001  -2.5058   0.0000   0.0000   0.0000   0.3054
   8.750   1.3144   0.01590   0.00983  -0.0869  0.1781  1.0001  -2.6107   0.0000   0.0000   0.0000   0.3030
   9.000   1.3256   0.01688   0.01075  -0.0852  0.1631  1.0001  -2.7214   0.0000   0.0000   0.0000   0.3007
   9.250   1.3361   0.01799   0.01179  -0.0836  0.1479  1.0001  -2.8312   0.0000   0.0000   0.0000   0.2986
   9.500   1.3446   0.01927   0.01299  -0.0819  0.1290  1.0001  -2.9358   0.0000   0.0000   0.0000   0.2965
   9.750   1.3508   0.02075   0.01436  -0.0800  0.1082  1.0001  -3.0340   0.0000   0.0000   0.0000   0.2944
  10.000   1.3552   0.02237   0.01587  -0.0781  0.0877  1.0001  -3.1274   0.0000   0.0000   0.0000   0.2923
  10.250   1.3610   0.02390   0.01733  -0.0763  0.0725  1.0001  -3.2261   0.0000   0.0000   0.0000   0.2903
  10.500   1.3693   0.02527   0.01866  -0.0747  0.0624  1.0001  -3.3338   0.0000   0.0000   0.0000   0.2884
  10.750   1.3789   0.02656   0.01993  -0.0734  0.0551  1.0001  -3.4466   0.0000   0.0000   0.0000   0.2865
  11.000   1.3887   0.02783   0.02120  -0.0721  0.0492  1.0001  -3.5616   0.0000   0.0000   0.0000   0.2848
  11.250   1.3982   0.02914   0.02250  -0.0708  0.0435  1.0001  -3.6765   0.0000   0.0000   0.0000   0.2830
  11.500   1.4071   0.03050   0.02385  -0.0694  0.0373  1.0001  -3.7904   0.0000   0.0000   0.0000   0.2813
  11.750   1.4150   0.03194   0.02528  -0.0681  0.0314  1.0001  -3.9051   0.0000   0.0000   0.0000   0.2796
  12.000   1.4227   0.03342   0.02675  -0.0668  0.0270  1.0001  -4.0257   0.0000   0.0000   0.0000   0.2779
  12.250   1.4311   0.03487   0.02822  -0.0656  0.0240  1.0001  -4.1498   0.0000   0.0000   0.0000   0.2763
  12.500   1.4400   0.03632   0.02970  -0.0644  0.0218  1.0001  -4.2766   0.0000   0.0000   0.0000   0.2748
  12.750   1.4481   0.03786   0.03126  -0.0633  0.0200  1.0001  -4.4018   0.0000   0.0000   0.0000   0.2733
  13.000   1.4574   0.03934   0.03277  -0.0623  0.0185  1.0001  -4.5324   0.0000   0.0000   0.0000   0.2718
  13.250   1.4654   0.04095   0.03442  -0.0613  0.0171  1.0001  -4.6594   0.0000   0.0000   0.0000   0.2704
  13.500   1.4742   0.04252   0.03603  -0.0604  0.0162  1.0001  -4.7902   0.0000   0.0000   0.0000   0.2690
  13.750   1.4822   0.04418   0.03773  -0.0595  0.0153  1.0001  -4.9195   0.0000   0.0000   0.0000   0.2677
  14.000   1.4896   0.04594   0.03952  -0.0586  0.0146  1.0001  -5.0474   0.0000   0.0000   0.0000   0.2664
  14.250   1.4967   0.04774   0.04137  -0.0578  0.0139  1.0001  -5.1747   0.0000   0.0000   0.0000   0.2651
  14.500   1.5040   0.04954   0.04322  -0.0570  0.0135  1.0001  -5.3060   0.0000   0.0000   0.0000   0.2638
  14.750   1.5109   0.05142   0.04515  -0.0563  0.0131  1.0001  -5.4440   0.0000   0.0000   0.0000   0.2626
  15.000   1.5172   0.05338   0.04716  -0.0555  0.0128  1.0001  -5.5804   0.0000   0.0000   0.0000   0.2615
  15.250   1.5226   0.05546   0.04930  -0.0549  0.0125  1.0001  -5.7138   0.0000   0.0000   0.0000   0.2603
  15.500   1.5273   0.05763   0.05152  -0.0542  0.0122  1.0001  -5.8447   0.0000   0.0000   0.0000   0.2592
  15.750   1.5313   0.05990   0.05385  -0.0536  0.0119  1.0001  -5.9723   0.0000   0.0000   0.0000   0.2582
  16.000   1.5342   0.06233   0.05634  -0.0530  0.0117  1.0001  -6.0955   0.0000   0.0000   0.0000   0.2572
  16.250   1.5371   0.06482   0.05890  -0.0525  0.0115  1.0001  -6.2265   0.0000   0.0000   0.0000   0.2562
  16.500   1.5404   0.06726   0.06142  -0.0521  0.0114  1.0001  -6.3617   0.0000   0.0000   0.0000   0.2553
  16.750   1.5431   0.06981   0.06404  -0.0517  0.0112  1.0001  -6.4943   0.0000   0.0000   0.0000   0.2544
  17.000   1.5454   0.07244   0.06675  -0.0514  0.0111  1.0001  -6.6253   0.0000   0.0000   0.0000   0.2535
  17.250   1.5472   0.07518   0.06955  -0.0511  0.0109  1.0001  -6.7540   0.0000   0.0000   0.0000   0.2528
  17.500   1.5482   0.07802   0.07247  -0.0510  0.0107  1.0001  -6.8793   0.0000   0.0000   0.0000   0.2520
  17.750   1.5485   0.08098   0.07552  -0.0509  0.0106  1.0001  -7.0067   0.0000   0.0000   0.0000   0.2514
  18.000   1.5480   0.08408   0.07869  -0.0509  0.0104  1.0001  -7.1515   0.0000   0.0000   0.0000   0.2507
  18.250   1.5468   0.08732   0.08201  -0.0509  0.0103  1.0001  -7.2912   0.0000   0.0000   0.0000   0.2502
  18.500   1.5450   0.09068   0.08545  -0.0511  0.0101  1.0001  -7.4262   0.0000   0.0000   0.0000   0.2497
  18.750   1.5424   0.09416   0.08901  -0.0514  0.0100  1.0001  -7.5555   0.0000   0.0000   0.0000   0.2493
  19.000   1.5391   0.09777   0.09270  -0.0518  0.0099  1.0001  -7.6797   0.0000   0.0000   0.0000   0.2490
  19.250   1.5353   0.10151   0.09652  -0.0523  0.0098  1.0001  -7.7986   0.0000   0.0000   0.0000   0.2488
  19.500   1.5307   0.10540   0.10050  -0.0530  0.0097  1.0001  -7.9105   0.0000   0.0000   0.0000   0.2487
  19.750   1.5250   0.10948   0.10466  -0.0538  0.0095  1.0001  -8.0120   0.0000   0.0000   0.0000   0.2487
  20.000   1.5182   0.11378   0.10905  -0.0548  0.0094  1.0001  -8.1020   0.0000   0.0000   0.0000   0.2489


