xflr5 v6.61

 Calculated polar for: QX0026 v32

 1 1 Reynolds number fixed          Mach number fixed         

 xtrf =   1.000 (top)        1.000 (bottom)
 Mach =   0.000     Re =     0.900 e 6     Ncrit =   5.000

  alpha     CL        CD       CDp       Cm    Top Xtr Bot Xtr   Cpmin    Chinge    XCp    
 ------- -------- --------- --------- -------- ------- ------- -------- --------- ---------
 -10.000  -0.5885   0.01608   0.01015  -0.1062  0.7143  0.0086  -8.2392   0.0000   0.0000   0.0000   0.0531
  -9.750  -0.5632   0.01562   0.00960  -0.1061  0.7122  0.0088  -7.9148   0.0000   0.0000   0.0000   0.0453
  -9.500  -0.5383   0.01508   0.00898  -0.1059  0.7103  0.0092  -7.6025   0.0000   0.0000   0.0000   0.0369
  -9.250  -0.5126   0.01462   0.00848  -0.1058  0.7082  0.0096  -7.2826   0.0000   0.0000   0.0000   0.0270
  -9.000  -0.4864   0.01422   0.00804  -0.1058  0.7062  0.0100  -6.9641   0.0000   0.0000   0.0000   0.0159
  -8.750  -0.4600   0.01385   0.00761  -0.1058  0.7043  0.0105  -6.6676   0.0000   0.0000   0.0000   0.0033
  -8.500  -0.4335   0.01351   0.00721  -0.1057  0.7024  0.0109  -6.3831   0.0000   0.0000   0.0000  -0.0108
  -8.250  -0.4068   0.01319   0.00682  -0.1057  0.7007  0.0114  -6.1020   0.0000   0.0000   0.0000  -0.0271
  -8.000  -0.3803   0.01282   0.00640  -0.1057  0.6989  0.0120  -5.8276   0.0000   0.0000   0.0000  -0.0454
  -7.750  -0.3533   0.01250   0.00607  -0.1057  0.6969  0.0127  -5.5505   0.0000   0.0000   0.0000  -0.0671
  -7.500  -0.3261   0.01222   0.00575  -0.1057  0.6950  0.0134  -5.2783   0.0000   0.0000   0.0000  -0.0928
  -7.250  -0.2988   0.01196   0.00544  -0.1058  0.6932  0.0141  -5.0117   0.0000   0.0000   0.0000  -0.1232
  -7.000  -0.2716   0.01168   0.00513  -0.1058  0.6914  0.0149  -4.7504   0.0000   0.0000   0.0000  -0.1596
  -6.750  -0.2442   0.01145   0.00486  -0.1058  0.6898  0.0160  -4.4902   0.0000   0.0000   0.0000  -0.2046
  -6.500  -0.2165   0.01124   0.00461  -0.1059  0.6883  0.0171  -4.2357   0.0000   0.0000   0.0000  -0.2618
  -6.250  -0.1889   0.01099   0.00436  -0.1060  0.6864  0.0182  -3.9876   0.0000   0.0000   0.0000  -0.3357
  -6.000  -0.1611   0.01078   0.00413  -0.1061  0.6843  0.0195  -3.7435   0.0000   0.0000   0.0000  -0.4357
  -5.750  -0.1332   0.01060   0.00391  -0.1061  0.6821  0.0208  -3.5051   0.0000   0.0000   0.0000  -0.5781
  -5.500  -0.1056   0.01039   0.00369  -0.1062  0.6801  0.0226  -3.2725   0.0000   0.0000   0.0000  -0.7933
  -5.250  -0.0777   0.01023   0.00349  -0.1063  0.6783  0.0244  -3.0449   0.0000   0.0000   0.0000  -1.1664
  -5.000  -0.0497   0.01003   0.00330  -0.1064  0.6764  0.0267  -2.8229   0.0000   0.0000   0.0000  -1.9631
  -4.750  -0.0215   0.00987   0.00313  -0.1065  0.6745  0.0290  -2.6061   0.0000   0.0000   0.0000  -4.8652
  -4.500   0.0066   0.00969   0.00296  -0.1067  0.6724  0.0319  -2.3956   0.0000   0.0000   0.0000  16.8726
  -4.250   0.0347   0.00954   0.00280  -0.1068  0.6705  0.0352  -2.1909   0.0000   0.0000   0.0000   3.4095
  -4.000   0.0628   0.00940   0.00265  -0.1069  0.6687  0.0398  -1.9983   0.0000   0.0000   0.0000   1.9948
  -3.750   0.0909   0.00926   0.00251  -0.1070  0.6670  0.0453  -1.8219   0.0000   0.0000   0.0000   1.4539
  -3.500   0.1192   0.00911   0.00239  -0.1072  0.6649  0.0523  -1.6501   0.0000   0.0000   0.0000   1.1677
  -3.250   0.1474   0.00895   0.00227  -0.1073  0.6625  0.0626  -1.4864   0.0000   0.0000   0.0000   0.9919
  -3.000   0.1755   0.00880   0.00215  -0.1075  0.6601  0.0757  -1.3488   0.0000   0.0000   0.0000   0.8728
  -2.750   0.2035   0.00865   0.00205  -0.1076  0.6579  0.0927  -1.2186   0.0000   0.0000   0.0000   0.7867
  -2.500   0.2314   0.00849   0.00196  -0.1077  0.6559  0.1144  -1.0920   0.0000   0.0000   0.0000   0.7215
  -2.250   0.2596   0.00834   0.00188  -0.1079  0.6535  0.1368  -0.9754   0.0000   0.0000   0.0000   0.6702
  -2.000   0.2878   0.00820   0.00181  -0.1080  0.6511  0.1598  -0.8652   0.0000   0.0000   0.0000   0.6289
  -1.750   0.3158   0.00807   0.00175  -0.1082  0.6487  0.1865  -0.7653   0.0000   0.0000   0.0000   0.5951
  -1.500   0.3435   0.00792   0.00169  -0.1083  0.6465  0.2217  -0.7811   0.0000   0.0000   0.0000   0.5669
  -1.250   0.3715   0.00777   0.00166  -0.1084  0.6439  0.2594  -0.7975   0.0000   0.0000   0.0000   0.5429
  -1.000   0.3994   0.00762   0.00163  -0.1086  0.6411  0.2985  -0.8138   0.0000   0.0000   0.0000   0.5222
  -0.750   0.4274   0.00751   0.00161  -0.1087  0.6385  0.3354  -0.8302   0.0000   0.0000   0.0000   0.5042
  -0.500   0.4553   0.00742   0.00160  -0.1088  0.6360  0.3692  -0.8466   0.0000   0.0000   0.0000   0.4883
  -0.250   0.4835   0.00734   0.00160  -0.1090  0.6333  0.4013  -0.8633   0.0000   0.0000   0.0000   0.4743
   0.000   0.5116   0.00725   0.00160  -0.1091  0.6302  0.4326  -0.8816   0.0000   0.0000   0.0000   0.4618
   0.250   0.5396   0.00718   0.00161  -0.1092  0.6271  0.4649  -0.8999   0.0000   0.0000   0.0000   0.4505
   0.500   0.5675   0.00714   0.00162  -0.1093  0.6243  0.4932  -0.9182   0.0000   0.0000   0.0000   0.4404
   0.750   0.5955   0.00705   0.00164  -0.1095  0.6209  0.5316  -0.9366   0.0000   0.0000   0.0000   0.4312
   1.000   0.6231   0.00697   0.00167  -0.1095  0.6174  0.5719  -0.9549   0.0000   0.0000   0.0000   0.4228
   1.250   0.6505   0.00692   0.00170  -0.1095  0.6141  0.6099  -0.9751   0.0000   0.0000   0.0000   0.4150
   1.500   0.6779   0.00683   0.00175  -0.1095  0.6102  0.6541  -0.9953   0.0000   0.0000   0.0000   0.4079
   1.750   0.7047   0.00675   0.00180  -0.1094  0.6060  0.7027  -1.0152   0.0000   0.0000   0.0000   0.4012
   2.000   0.7312   0.00669   0.00186  -0.1091  0.6022  0.7489  -1.0350   0.0000   0.0000   0.0000   0.3950
   2.250   0.7578   0.00662   0.00192  -0.1089  0.5977  0.7922  -1.0564   0.0000   0.0000   0.0000   0.3891
   2.500   0.7833   0.00656   0.00198  -0.1084  0.5930  0.8401  -1.0780   0.0000   0.0000   0.0000   0.3835
   2.750   0.8102   0.00645   0.00205  -0.1081  0.5876  0.9030  -1.1005   0.0000   0.0000   0.0000   0.3783
   3.000   0.8667   0.00648   0.00214  -0.1147  0.5804  0.9748  -1.1418   0.0000   0.0000   0.0000   0.3769
   3.250   0.9049   0.00658   0.00221  -0.1171  0.5716  1.0001  -1.1740   0.0000   0.0000   0.0000   0.3737
   3.500   0.9305   0.00668   0.00229  -0.1168  0.5629  1.0001  -1.2033   0.0000   0.0000   0.0000   0.3695
   3.750   0.9558   0.00680   0.00237  -0.1164  0.5541  1.0001  -1.2378   0.0000   0.0000   0.0000   0.3654
   4.000   0.9808   0.00693   0.00246  -0.1159  0.5442  1.0001  -1.2729   0.0000   0.0000   0.0000   0.3615
   4.250   1.0058   0.00707   0.00257  -0.1154  0.5337  1.0001  -1.3081   0.0000   0.0000   0.0000   0.3578
   4.500   1.0307   0.00722   0.00269  -0.1150  0.5235  1.0001  -1.3434   0.0000   0.0000   0.0000   0.3543
   4.750   1.0555   0.00738   0.00281  -0.1145  0.5141  1.0001  -1.3788   0.0000   0.0000   0.0000   0.3509
   5.000   1.0800   0.00756   0.00296  -0.1140  0.5040  1.0001  -1.4142   0.0000   0.0000   0.0000   0.3477
   5.250   1.1043   0.00774   0.00312  -0.1135  0.4926  1.0001  -1.4525   0.0000   0.0000   0.0000   0.3446
   5.500   1.1284   0.00795   0.00328  -0.1129  0.4808  1.0001  -1.4914   0.0000   0.0000   0.0000   0.3416
   5.750   1.1515   0.00820   0.00349  -0.1122  0.4669  1.0001  -1.5297   0.0000   0.0000   0.0000   0.3386
   6.000   1.1731   0.00851   0.00373  -0.1112  0.4491  1.0001  -1.5672   0.0000   0.0000   0.0000   0.3356
   6.250   1.1938   0.00888   0.00401  -0.1100  0.4291  1.0001  -1.6049   0.0000   0.0000   0.0000   0.3327
   6.500   1.2152   0.00920   0.00427  -0.1091  0.4127  1.0001  -1.6898   0.0000   0.0000   0.0000   0.3299
   6.750   1.2344   0.00962   0.00460  -0.1077  0.3910  1.0001  -1.8000   0.0000   0.0000   0.0000   0.3271
   7.000   1.2492   0.01022   0.00505  -0.1056  0.3594  1.0001  -1.9044   0.0000   0.0000   0.0000   0.3240
   7.250   1.2614   0.01093   0.00556  -0.1031  0.3258  1.0001  -2.0089   0.0000   0.0000   0.0000   0.3209
   7.500   1.2715   0.01164   0.00611  -0.1003  0.2946  1.0001  -2.1097   0.0000   0.0000   0.0000   0.3176
   7.750   1.2795   0.01235   0.00669  -0.0970  0.2676  1.0001  -2.2064   0.0000   0.0000   0.0000   0.3143
   8.000   1.2880   0.01311   0.00733  -0.0941  0.2442  1.0001  -2.3053   0.0000   0.0000   0.0000   0.3111
   8.250   1.2969   0.01395   0.00806  -0.0915  0.2218  1.0001  -2.4062   0.0000   0.0000   0.0000   0.3082
   8.500   1.3045   0.01494   0.00894  -0.0889  0.1993  1.0001  -2.5047   0.0000   0.0000   0.0000   0.3054
   8.750   1.3138   0.01595   0.00987  -0.0868  0.1807  1.0001  -2.6085   0.0000   0.0000   0.0000   0.3029
   9.250   1.3356   0.01804   0.01183  -0.0836  0.1503  1.0001  -2.8292   0.0000   0.0000   0.0000   0.2986
   9.500   1.3445   0.01930   0.01301  -0.0819  0.1322  1.0001  -2.9349   0.0000   0.0000   0.0000   0.2965
   9.750   1.3509   0.02076   0.01437  -0.0800  0.1120  1.0001  -3.0340   0.0000   0.0000   0.0000   0.2944
  10.000   1.3553   0.02238   0.01588  -0.0781  0.0909  1.0001  -3.1272   0.0000   0.0000   0.0000   0.2923
  10.500   1.3685   0.02535   0.01873  -0.0747  0.0638  1.0001  -3.3304   0.0000   0.0000   0.0000   0.2883
  10.750   1.3777   0.02666   0.02002  -0.0733  0.0562  1.0001  -3.4421   0.0000   0.0000   0.0000   0.2865
  11.000   1.3875   0.02794   0.02129  -0.0720  0.0502  1.0001  -3.5568   0.0000   0.0000   0.0000   0.2847
  11.250   1.3970   0.02924   0.02259  -0.0707  0.0445  1.0001  -3.6719   0.0000   0.0000   0.0000   0.2830
  11.500   1.4057   0.03062   0.02396  -0.0693  0.0383  1.0001  -3.7848   0.0000   0.0000   0.0000   0.2813
  11.750   1.4137   0.03206   0.02538  -0.0680  0.0323  1.0001  -3.8998   0.0000   0.0000   0.0000   0.2795
  12.000   1.4214   0.03353   0.02685  -0.0667  0.0277  1.0001  -4.0201   0.0000   0.0000   0.0000   0.2779
  12.250   1.4297   0.03501   0.02834  -0.0654  0.0245  1.0001  -4.1434   0.0000   0.0000   0.0000   0.2763
  12.500   1.4382   0.03649   0.02984  -0.0643  0.0222  1.0001  -4.2687   0.0000   0.0000   0.0000   0.2747
  12.750   1.4464   0.03802   0.03139  -0.0632  0.0203  1.0001  -4.3943   0.0000   0.0000   0.0000   0.2732
  13.000   1.4555   0.03952   0.03293  -0.0622  0.0188  1.0001  -4.5238   0.0000   0.0000   0.0000   0.2718
  13.250   1.4636   0.04112   0.03457  -0.0612  0.0174  1.0001  -4.6512   0.0000   0.0000   0.0000   0.2704
  13.500   1.4720   0.04273   0.03621  -0.0603  0.0164  1.0001  -4.7801   0.0000   0.0000   0.0000   0.2690
  13.750   1.4802   0.04438   0.03791  -0.0594  0.0156  1.0001  -4.9097   0.0000   0.0000   0.0000   0.2676
  14.000   1.4876   0.04613   0.03970  -0.0585  0.0148  1.0001  -5.0376   0.0000   0.0000   0.0000   0.2663
  14.250   1.4942   0.04799   0.04159  -0.0576  0.0141  1.0001  -5.1626   0.0000   0.0000   0.0000   0.2650
  14.500   1.5016   0.04979   0.04345  -0.0569  0.0137  1.0001  -5.2937   0.0000   0.0000   0.0000   0.2638
  14.750   1.5085   0.05167   0.04538  -0.0561  0.0133  1.0001  -5.4313   0.0000   0.0000   0.0000   0.2626
  15.000   1.5148   0.05363   0.04740  -0.0554  0.0129  1.0001  -5.5677   0.0000   0.0000   0.0000   0.2615
  15.250   1.5203   0.05570   0.04952  -0.0548  0.0126  1.0001  -5.7012   0.0000   0.0000   0.0000   0.2603
  15.500   1.5250   0.05788   0.05176  -0.0541  0.0123  1.0001  -5.8318   0.0000   0.0000   0.0000   0.2592
  15.750   1.5291   0.06014   0.05408  -0.0535  0.0121  1.0001  -5.9600   0.0000   0.0000   0.0000   0.2582
  16.000   1.5323   0.06255   0.05655  -0.0529  0.0118  1.0001  -6.0843   0.0000   0.0000   0.0000   0.2572
  16.250   1.5342   0.06514   0.05921  -0.0524  0.0116  1.0001  -6.2098   0.0000   0.0000   0.0000   0.2562
  16.500   1.5372   0.06764   0.06177  -0.0520  0.0114  1.0001  -6.3425   0.0000   0.0000   0.0000   0.2553
  16.750   1.5398   0.07020   0.06441  -0.0516  0.0113  1.0001  -6.4743   0.0000   0.0000   0.0000   0.2544
  17.000   1.5421   0.07285   0.06714  -0.0513  0.0112  1.0001  -6.6043   0.0000   0.0000   0.0000   0.2536
  17.250   1.5438   0.07560   0.06996  -0.0511  0.0110  1.0001  -6.7323   0.0000   0.0000   0.0000   0.2528
  17.500   1.5448   0.07845   0.07289  -0.0509  0.0108  1.0001  -6.8569   0.0000   0.0000   0.0000   0.2521
  17.750   1.5451   0.08142   0.07594  -0.0508  0.0107  1.0001  -6.9818   0.0000   0.0000   0.0000   0.2514
  18.000   1.5447   0.08452   0.07912  -0.0508  0.0105  1.0001  -7.1265   0.0000   0.0000   0.0000   0.2508
  18.250   1.5435   0.08776   0.08244  -0.0509  0.0104  1.0001  -7.2661   0.0000   0.0000   0.0000   0.2503
  18.500   1.5417   0.09112   0.08588  -0.0511  0.0102  1.0001  -7.4006   0.0000   0.0000   0.0000   0.2498
  18.750   1.5391   0.09460   0.08945  -0.0514  0.0101  1.0001  -7.5297   0.0000   0.0000   0.0000   0.2494
  19.000   1.5359   0.09821   0.09314  -0.0518  0.0100  1.0001  -7.6539   0.0000   0.0000   0.0000   0.2491
  19.250   1.5322   0.10195   0.09696  -0.0524  0.0099  1.0001  -7.7731   0.0000   0.0000   0.0000   0.2489
  19.500   1.5278   0.10582   0.10091  -0.0530  0.0098  1.0001  -7.8864   0.0000   0.0000   0.0000   0.2488
  19.750   1.5225   0.10984   0.10501  -0.0538  0.0096  1.0001  -7.9910   0.0000   0.0000   0.0000   0.2488
  20.000   1.5164   0.11403   0.10930  -0.0548  0.0095  1.0001  -8.0866   0.0000   0.0000   0.0000   0.2489


