xflr5 v6.61

 Calculated polar for: QX0026 v32

 1 1 Reynolds number fixed          Mach number fixed         

 xtrf =   1.000 (top)        1.000 (bottom)
 Mach =   0.000     Re =     0.220 e 6     Ncrit =   5.000

  alpha     CL        CD       CDp       Cm    Top Xtr Bot Xtr   Cpmin    Chinge    XCp    
 ------- -------- --------- --------- -------- ------- ------- -------- --------- ---------
 -10.000  -0.4856   0.03558   0.03008  -0.1123  0.7772  0.0153  -6.4258   0.0000   0.0000   0.0000   0.0002
  -9.750  -0.4758   0.03333   0.02751  -0.1124  0.7747  0.0158  -6.3099   0.0000   0.0000   0.0000  -0.0046
  -9.500  -0.4641   0.03102   0.02484  -0.1123  0.7721  0.0165  -6.2008   0.0000   0.0000   0.0000  -0.0103
  -9.250  -0.4512   0.02855   0.02185  -0.1120  0.7691  0.0174  -6.1201   0.0000   0.0000   0.0000  -0.0165
  -9.000  -0.4312   0.02745   0.02067  -0.1119  0.7665  0.0179  -5.8869   0.0000   0.0000   0.0000  -0.0277
  -8.750  -0.4102   0.02646   0.01953  -0.1117  0.7643  0.0185  -5.6560   0.0000   0.0000   0.0000  -0.0407
  -8.500  -0.3891   0.02527   0.01813  -0.1114  0.7620  0.0192  -5.4727   0.0000   0.0000   0.0000  -0.0550
  -8.250  -0.3677   0.02399   0.01660  -0.1111  0.7591  0.0201  -5.3153   0.0000   0.0000   0.0000  -0.0711
  -8.000  -0.3455   0.02281   0.01517  -0.1107  0.7565  0.0210  -5.1537   0.0000   0.0000   0.0000  -0.0898
  -7.750  -0.3218   0.02211   0.01442  -0.1106  0.7542  0.0219  -4.9252   0.0000   0.0000   0.0000  -0.1135
  -7.500  -0.2974   0.02147   0.01363  -0.1104  0.7523  0.0233  -4.7080   0.0000   0.0000   0.0000  -0.1418
  -7.250  -0.2732   0.02068   0.01267  -0.1102  0.7495  0.0248  -4.5172   0.0000   0.0000   0.0000  -0.1747
  -7.000  -0.2486   0.02007   0.01204  -0.1101  0.7471  0.0261  -4.2975   0.0000   0.0000   0.0000  -0.2151
  -6.750  -0.2237   0.01944   0.01129  -0.1098  0.7449  0.0276  -4.0959   0.0000   0.0000   0.0000  -0.2648
  -6.500  -0.1985   0.01885   0.01060  -0.1096  0.7430  0.0294  -3.8902   0.0000   0.0000   0.0000  -0.3280
  -6.250  -0.1729   0.01838   0.01007  -0.1095  0.7407  0.0315  -3.6778   0.0000   0.0000   0.0000  -0.4112
  -6.000  -0.1476   0.01785   0.00947  -0.1093  0.7382  0.0336  -3.4806   0.0000   0.0000   0.0000  -0.5216
  -5.750  -0.1219   0.01741   0.00899  -0.1092  0.7359  0.0359  -3.2758   0.0000   0.0000   0.0000  -0.6813
  -5.500  -0.0959   0.01699   0.00849  -0.1091  0.7340  0.0389  -3.0746   0.0000   0.0000   0.0000  -0.9302
  -5.250  -0.0695   0.01661   0.00802  -0.1090  0.7322  0.0424  -2.8764   0.0000   0.0000   0.0000  -1.3738
  -5.000  -0.0435   0.01623   0.00763  -0.1089  0.7298  0.0460  -2.6810   0.0000   0.0000   0.0000  -2.3359
  -4.750  -0.0174   0.01589   0.00729  -0.1088  0.7272  0.0508  -2.4885   0.0000   0.0000   0.0000  -6.2168
  -4.500   0.0091   0.01558   0.00694  -0.1087  0.7249  0.0569  -2.2993   0.0000   0.0000   0.0000  12.5012
  -4.250   0.0360   0.01528   0.00660  -0.1086  0.7228  0.0651  -2.1223   0.0000   0.0000   0.0000   3.3546
  -4.000   0.0629   0.01496   0.00629  -0.1086  0.7210  0.0760  -1.9545   0.0000   0.0000   0.0000   2.0214
  -3.750   0.0891   0.01471   0.00609  -0.1085  0.7181  0.0918  -1.7928   0.0000   0.0000   0.0000   1.4972
  -3.500   0.1156   0.01444   0.00591  -0.1085  0.7156  0.1135  -1.6331   0.0000   0.0000   0.0000   1.2096
  -3.250   0.1424   0.01419   0.00573  -0.1085  0.7135  0.1411  -1.4806   0.0000   0.0000   0.0000   1.0277
  -3.000   0.1694   0.01394   0.00555  -0.1085  0.7115  0.1739  -1.3441   0.0000   0.0000   0.0000   0.9027
  -2.750   0.1962   0.01370   0.00542  -0.1085  0.7096  0.2124  -1.2191   0.0000   0.0000   0.0000   0.8124
  -2.500   0.2222   0.01350   0.00539  -0.1084  0.7068  0.2565  -1.0990   0.0000   0.0000   0.0000   0.7454
  -2.250   0.2486   0.01331   0.00533  -0.1083  0.7043  0.3036  -0.9875   0.0000   0.0000   0.0000   0.6916
  -2.000   0.2754   0.01313   0.00527  -0.1083  0.7020  0.3522  -0.8807   0.0000   0.0000   0.0000   0.6477
  -1.750   0.3026   0.01295   0.00518  -0.1082  0.7000  0.3975  -0.7757   0.0000   0.0000   0.0000   0.6111
  -1.500   0.3285   0.01284   0.00520  -0.1080  0.6969  0.4402  -0.7625   0.0000   0.0000   0.0000   0.5813
  -1.250   0.3546   0.01272   0.00521  -0.1078  0.6940  0.4842  -0.7776   0.0000   0.0000   0.0000   0.5556
  -1.000   0.3810   0.01259   0.00520  -0.1075  0.6917  0.5303  -0.7930   0.0000   0.0000   0.0000   0.5332
  -0.750   0.4077   0.01245   0.00517  -0.1073  0.6898  0.5777  -0.8087   0.0000   0.0000   0.0000   0.5135
  -0.500   0.4333   0.01237   0.00523  -0.1068  0.6872  0.6253  -0.8240   0.0000   0.0000   0.0000   0.4964
   0.000   0.4839   0.01217   0.00532  -0.1056  0.6812  0.7257  -0.8573   0.0000   0.0000   0.0000   0.4672
   0.250   0.5101   0.01202   0.00529  -0.1051  0.6790  0.7802  -0.8748   0.0000   0.0000   0.0000   0.4544
   0.500   0.5372   0.01195   0.00538  -0.1047  0.6758  0.8410  -0.8924   0.0000   0.0000   0.0000   0.4429
   0.750   0.5785   0.01190   0.00544  -0.1074  0.6727  0.9087  -0.9174   0.0000   0.0000   0.0000   0.4333
   1.000   0.6311   0.01188   0.00541  -0.1127  0.6702  0.9754  -0.9506   0.0000   0.0000   0.0000   0.4259
   1.250   0.6688   0.01192   0.00536  -0.1150  0.6679  1.0001  -0.9764   0.0000   0.0000   0.0000   0.4188
   1.500   0.6926   0.01204   0.00548  -0.1144  0.6638  1.0001  -0.9941   0.0000   0.0000   0.0000   0.4117
   1.750   0.7180   0.01212   0.00551  -0.1140  0.6602  1.0001  -1.0130   0.0000   0.0000   0.0000   0.4051
   2.000   0.7447   0.01216   0.00550  -0.1138  0.6576  1.0001  -1.0337   0.0000   0.0000   0.0000   0.3988
   2.250   0.7695   0.01229   0.00563  -0.1134  0.6539  1.0001  -1.0544   0.0000   0.0000   0.0000   0.3930
   2.500   0.7949   0.01238   0.00571  -0.1130  0.6500  1.0001  -1.0757   0.0000   0.0000   0.0000   0.3876
   2.750   0.8220   0.01241   0.00569  -0.1129  0.6469  1.0001  -1.0983   0.0000   0.0000   0.0000   0.3824
   3.000   0.8467   0.01254   0.00584  -0.1125  0.6423  1.0001  -1.1214   0.0000   0.0000   0.0000   0.3776
   3.250   0.8726   0.01262   0.00592  -0.1122  0.6385  1.0001  -1.1458   0.0000   0.0000   0.0000   0.3730
   3.500   0.9001   0.01265   0.00590  -0.1122  0.6353  1.0001  -1.1761   0.0000   0.0000   0.0000   0.3687
   3.750   0.9238   0.01281   0.00612  -0.1115  0.6296  1.0001  -1.2064   0.0000   0.0000   0.0000   0.3646
   4.000   0.9505   0.01285   0.00614  -0.1114  0.6255  1.0001  -1.2417   0.0000   0.0000   0.0000   0.3607
   4.250   0.9748   0.01298   0.00632  -0.1108  0.6199  1.0001  -1.2759   0.0000   0.0000   0.0000   0.3569
   4.500   1.0010   0.01303   0.00636  -0.1106  0.6148  1.0001  -1.3120   0.0000   0.0000   0.0000   0.3534
   4.750   1.0250   0.01315   0.00652  -0.1100  0.6080  1.0001  -1.3465   0.0000   0.0000   0.0000   0.3499
   5.000   1.0507   0.01319   0.00656  -0.1096  0.6017  1.0001  -1.3828   0.0000   0.0000   0.0000   0.3466
   5.250   1.0751   0.01328   0.00667  -0.1091  0.5940  1.0001  -1.4182   0.0000   0.0000   0.0000   0.3434
   5.500   1.0990   0.01340   0.00683  -0.1084  0.5859  1.0001  -1.4566   0.0000   0.0000   0.0000   0.3402
   5.750   1.1232   0.01352   0.00697  -0.1079  0.5784  1.0001  -1.4956   0.0000   0.0000   0.0000   0.3373
   6.000   1.1475   0.01364   0.00711  -0.1073  0.5706  1.0001  -1.5349   0.0000   0.0000   0.0000   0.3344
   6.250   1.1704   0.01380   0.00731  -0.1065  0.5615  1.0001  -1.5734   0.0000   0.0000   0.0000   0.3316
   6.500   1.1933   0.01398   0.00752  -0.1057  0.5525  1.0001  -1.6177   0.0000   0.0000   0.0000   0.3288
   6.750   1.2158   0.01418   0.00775  -0.1049  0.5432  1.0001  -1.7336   0.0000   0.0000   0.0000   0.3262
   7.000   1.2377   0.01440   0.00800  -0.1040  0.5333  1.0001  -1.8503   0.0000   0.0000   0.0000   0.3235
   7.250   1.2589   0.01464   0.00826  -0.1029  0.5224  1.0001  -1.9675   0.0000   0.0000   0.0000   0.3209
   7.500   1.2792   0.01491   0.00854  -0.1017  0.5107  1.0001  -2.0866   0.0000   0.0000   0.0000   0.3183
   7.750   1.2978   0.01523   0.00886  -0.1002  0.4970  1.0001  -2.2102   0.0000   0.0000   0.0000   0.3157
   8.000   1.3141   0.01561   0.00923  -0.0984  0.4809  1.0001  -2.3298   0.0000   0.0000   0.0000   0.3130
   8.250   1.3273   0.01609   0.00964  -0.0960  0.4629  1.0001  -2.4428   0.0000   0.0000   0.0000   0.3100
   8.500   1.3361   0.01667   0.01018  -0.0930  0.4430  1.0001  -2.5454   0.0000   0.0000   0.0000   0.3069
   8.750   1.3433   0.01740   0.01084  -0.0899  0.4228  1.0001  -2.6446   0.0000   0.0000   0.0000   0.3038
   9.000   1.3486   0.01831   0.01168  -0.0868  0.4007  1.0001  -2.7388   0.0000   0.0000   0.0000   0.3008
   9.250   1.3510   0.01948   0.01274  -0.0837  0.3773  1.0001  -2.8254   0.0000   0.0000   0.0000   0.2980
   9.500   1.3529   0.02084   0.01401  -0.0808  0.3525  1.0001  -2.9099   0.0000   0.0000   0.0000   0.2953
   9.750   1.3536   0.02242   0.01548  -0.0781  0.3278  1.0001  -2.9913   0.0000   0.0000   0.0000   0.2928
  10.000   1.3530   0.02420   0.01715  -0.0756  0.3027  1.0001  -3.0687   0.0000   0.0000   0.0000   0.2905
  10.250   1.3529   0.02604   0.01889  -0.0732  0.2779  1.0001  -3.1477   0.0000   0.0000   0.0000   0.2883
  10.500   1.3525   0.02797   0.02071  -0.0710  0.2556  1.0001  -3.2257   0.0000   0.0000   0.0000   0.2862
  10.750   1.3534   0.02986   0.02251  -0.0689  0.2343  1.0001  -3.3079   0.0000   0.0000   0.0000   0.2842
  11.000   1.3544   0.03178   0.02435  -0.0670  0.2150  1.0001  -3.3906   0.0000   0.0000   0.0000   0.2822
  11.250   1.3562   0.03368   0.02619  -0.0652  0.1964  1.0001  -3.4761   0.0000   0.0000   0.0000   0.2803
  11.500   1.3581   0.03560   0.02806  -0.0635  0.1795  1.0001  -3.5622   0.0000   0.0000   0.0000   0.2785
  11.750   1.3603   0.03755   0.02996  -0.0619  0.1620  1.0001  -3.6488   0.0000   0.0000   0.0000   0.2768
  12.000   1.3615   0.03962   0.03197  -0.0603  0.1438  1.0001  -3.7324   0.0000   0.0000   0.0000   0.2751
  12.250   1.3615   0.04186   0.03414  -0.0587  0.1240  1.0001  -3.8185   0.0000   0.0000   0.0000   0.2735
  12.500   1.3607   0.04426   0.03644  -0.0573  0.1045  1.0001  -3.9011   0.0000   0.0000   0.0000   0.2719
  12.750   1.3601   0.04670   0.03882  -0.0559  0.0886  1.0001  -3.9843   0.0000   0.0000   0.0000   0.2704
  13.000   1.3602   0.04913   0.04121  -0.0547  0.0764  1.0001  -4.0700   0.0000   0.0000   0.0000   0.2690
  13.250   1.3614   0.05154   0.04360  -0.0536  0.0673  1.0001  -4.1592   0.0000   0.0000   0.0000   0.2677
  13.500   1.3633   0.05392   0.04601  -0.0526  0.0596  1.0001  -4.2508   0.0000   0.0000   0.0000   0.2664
  13.750   1.3649   0.05640   0.04850  -0.0517  0.0534  1.0001  -4.3407   0.0000   0.0000   0.0000   0.2652
  14.000   1.3665   0.05892   0.05106  -0.0509  0.0480  1.0001  -4.4301   0.0000   0.0000   0.0000   0.2641
  14.250   1.3682   0.06149   0.05368  -0.0502  0.0431  1.0001  -4.5197   0.0000   0.0000   0.0000   0.2630
  14.500   1.3699   0.06411   0.05636  -0.0496  0.0390  1.0001  -4.6085   0.0000   0.0000   0.0000   0.2620
  14.750   1.3713   0.06681   0.05912  -0.0491  0.0357  1.0001  -4.6957   0.0000   0.0000   0.0000   0.2610
  15.000   1.3719   0.06965   0.06203  -0.0486  0.0332  1.0001  -4.7819   0.0000   0.0000   0.0000   0.2602
  15.250   1.3719   0.07262   0.06506  -0.0483  0.0311  1.0001  -4.8715   0.0000   0.0000   0.0000   0.2594
  15.500   1.3716   0.07567   0.06820  -0.0480  0.0296  1.0001  -4.9578   0.0000   0.0000   0.0000   0.2586
  15.750   1.3711   0.07880   0.07143  -0.0479  0.0283  1.0001  -5.0428   0.0000   0.0000   0.0000   0.2580
  16.000   1.3691   0.08217   0.07488  -0.0478  0.0273  1.0001  -5.1218   0.0000   0.0000   0.0000   0.2574
  16.250   1.3668   0.08565   0.07844  -0.0479  0.0264  1.0001  -5.1966   0.0000   0.0000   0.0000   0.2570
  16.500   1.3653   0.08904   0.08195  -0.0480  0.0256  1.0001  -5.2735   0.0000   0.0000   0.0000   0.2565
  16.750   1.3632   0.09256   0.08557  -0.0482  0.0248  1.0001  -5.3476   0.0000   0.0000   0.0000   0.2562
  17.000   1.3606   0.09619   0.08930  -0.0486  0.0242  1.0001  -5.4256   0.0000   0.0000   0.0000   0.2560
  17.250   1.3572   0.09998   0.09318  -0.0491  0.0237  1.0001  -5.5001   0.0000   0.0000   0.0000   0.2559
  17.500   1.3531   0.10390   0.09716  -0.0497  0.0233  1.0001  -5.5688   0.0000   0.0000   0.0000   0.2559
  17.750   1.3520   0.10741   0.10079  -0.0503  0.0227  1.0001  -5.6501   0.0000   0.0000   0.0000   0.2558
  18.000   1.3507   0.11096   0.10446  -0.0510  0.0222  1.0001  -5.7306   0.0000   0.0000   0.0000   0.2557
  18.250   1.3494   0.11455   0.10814  -0.0519  0.0217  1.0001  -5.8113   0.0000   0.0000   0.0000   0.2558
  18.500   1.3483   0.11814   0.11182  -0.0528  0.0212  1.0001  -5.8927   0.0000   0.0000   0.0000   0.2559
  18.750   1.3471   0.12173   0.11549  -0.0538  0.0207  1.0001  -5.9741   0.0000   0.0000   0.0000   0.2561
  19.000   1.3460   0.12532   0.11915  -0.0549  0.0203  1.0001  -6.0565   0.0000   0.0000   0.0000   0.2563
  19.500   1.3464   0.13206   0.12606  -0.0571  0.0196  1.0001  -6.2804   0.0000   0.0000   0.0000   0.2567
  19.750   1.3477   0.13531   0.12942  -0.0583  0.0193  1.0001  -6.3970   0.0000   0.0000   0.0000   0.2569
  20.000   1.3491   0.13853   0.13275  -0.0595  0.0190  1.0001  -6.5143   0.0000   0.0000   0.0000   0.2571


