xflr5 v6.61

 Calculated polar for: QX0026 v32

 1 1 Reynolds number fixed          Mach number fixed         

 xtrf =   1.000 (top)        1.000 (bottom)
 Mach =   0.000     Re =     0.640 e 6     Ncrit =   5.000

  alpha     CL        CD       CDp       Cm    Top Xtr Bot Xtr   Cpmin    Chinge    XCp    
 ------- -------- --------- --------- -------- ------- ------- -------- --------- ---------
 -10.000  -0.5777   0.01830   0.01224  -0.1071  0.7263  0.0097  -8.0327   0.0000   0.0000   0.0000   0.0479
  -9.750  -0.5534   0.01773   0.01157  -0.1070  0.7242  0.0101  -7.7222   0.0000   0.0000   0.0000   0.0400
  -9.500  -0.5288   0.01717   0.01092  -0.1069  0.7223  0.0104  -7.4170   0.0000   0.0000   0.0000   0.0313
  -9.250  -0.5039   0.01664   0.01029  -0.1067  0.7203  0.0109  -7.1162   0.0000   0.0000   0.0000   0.0215
  -9.000  -0.4785   0.01614   0.00970  -0.1066  0.7180  0.0112  -6.8177   0.0000   0.0000   0.0000   0.0104
  -8.750  -0.4533   0.01560   0.00909  -0.1065  0.7158  0.0117  -6.5440   0.0000   0.0000   0.0000  -0.0019
  -8.500  -0.4277   0.01514   0.00857  -0.1064  0.7138  0.0122  -6.2687   0.0000   0.0000   0.0000  -0.0160
  -8.250  -0.4015   0.01475   0.00812  -0.1064  0.7120  0.0128  -5.9945   0.0000   0.0000   0.0000  -0.0323
  -8.000  -0.3752   0.01438   0.00767  -0.1063  0.7104  0.0135  -5.7270   0.0000   0.0000   0.0000  -0.0511
  -7.750  -0.3486   0.01403   0.00725  -0.1063  0.7084  0.0142  -5.4627   0.0000   0.0000   0.0000  -0.0732
  -7.500  -0.3221   0.01364   0.00684  -0.1063  0.7063  0.0150  -5.2000   0.0000   0.0000   0.0000  -0.0988
  -7.250  -0.2951   0.01334   0.00650  -0.1063  0.7042  0.0160  -4.9360   0.0000   0.0000   0.0000  -0.1297
  -7.000  -0.2681   0.01305   0.00616  -0.1063  0.7023  0.0170  -4.6805   0.0000   0.0000   0.0000  -0.1670
  -6.750  -0.2412   0.01274   0.00579  -0.1063  0.7007  0.0180  -4.4316   0.0000   0.0000   0.0000  -0.2124
  -6.500  -0.2140   0.01247   0.00549  -0.1063  0.6991  0.0192  -4.1836   0.0000   0.0000   0.0000  -0.2700
  -6.250  -0.1865   0.01222   0.00520  -0.1064  0.6972  0.0204  -3.9410   0.0000   0.0000   0.0000  -0.3456
  -6.000  -0.1591   0.01195   0.00491  -0.1064  0.6952  0.0219  -3.7030   0.0000   0.0000   0.0000  -0.4469
  -5.750  -0.1315   0.01172   0.00466  -0.1065  0.6932  0.0237  -3.4685   0.0000   0.0000   0.0000  -0.5916
  -5.500  -0.1040   0.01149   0.00439  -0.1065  0.6912  0.0254  -3.2413   0.0000   0.0000   0.0000  -0.8125
  -5.250  -0.0764   0.01128   0.00414  -0.1066  0.6894  0.0276  -3.0176   0.0000   0.0000   0.0000  -1.1936
  -5.000  -0.0487   0.01107   0.00392  -0.1066  0.6872  0.0300  -2.7999   0.0000   0.0000   0.0000  -2.0132
  -4.750  -0.0208   0.01087   0.00371  -0.1067  0.6850  0.0326  -2.5870   0.0000   0.0000   0.0000  -5.0442
  -4.500   0.0071   0.01068   0.00351  -0.1068  0.6831  0.0360  -2.3795   0.0000   0.0000   0.0000  15.8368
  -4.250   0.0349   0.01050   0.00333  -0.1069  0.6812  0.0403  -2.1775   0.0000   0.0000   0.0000   3.3928
  -4.000   0.0628   0.01033   0.00315  -0.1070  0.6794  0.0455  -1.9914   0.0000   0.0000   0.0000   1.9954
  -3.750   0.0908   0.01018   0.00299  -0.1071  0.6777  0.0525  -1.8169   0.0000   0.0000   0.0000   1.4570
  -3.500   0.1188   0.01000   0.00285  -0.1072  0.6756  0.0624  -1.6469   0.0000   0.0000   0.0000   1.1720
  -3.250   0.1467   0.00982   0.00272  -0.1074  0.6735  0.0753  -1.4850   0.0000   0.0000   0.0000   0.9959
  -3.000   0.1746   0.00965   0.00260  -0.1075  0.6713  0.0925  -1.3474   0.0000   0.0000   0.0000   0.8762
  -2.750   0.2023   0.00947   0.00248  -0.1076  0.6691  0.1146  -1.2182   0.0000   0.0000   0.0000   0.7898
  -2.500   0.2301   0.00931   0.00238  -0.1077  0.6670  0.1382  -1.0923   0.0000   0.0000   0.0000   0.7242
  -2.250   0.2581   0.00915   0.00230  -0.1078  0.6645  0.1634  -0.9768   0.0000   0.0000   0.0000   0.6726
  -2.000   0.2860   0.00899   0.00223  -0.1079  0.6621  0.1922  -0.8673   0.0000   0.0000   0.0000   0.6311
  -1.750   0.3137   0.00881   0.00217  -0.1081  0.6598  0.2291  -0.7626   0.0000   0.0000   0.0000   0.5971
  -1.500   0.3413   0.00865   0.00211  -0.1081  0.6578  0.2702  -0.7787   0.0000   0.0000   0.0000   0.5687
  -1.250   0.3690   0.00850   0.00208  -0.1083  0.6554  0.3105  -0.7949   0.0000   0.0000   0.0000   0.5445
  -1.000   0.3969   0.00836   0.00206  -0.1084  0.6525  0.3505  -0.8112   0.0000   0.0000   0.0000   0.5236
  -0.750   0.4248   0.00826   0.00204  -0.1085  0.6497  0.3845  -0.8275   0.0000   0.0000   0.0000   0.5053
  -0.500   0.4526   0.00816   0.00202  -0.1086  0.6474  0.4196  -0.8439   0.0000   0.0000   0.0000   0.4893
  -0.250   0.4804   0.00807   0.00202  -0.1087  0.6450  0.4541  -0.8606   0.0000   0.0000   0.0000   0.4751
   0.000   0.5082   0.00798   0.00203  -0.1088  0.6420  0.4894  -0.8787   0.0000   0.0000   0.0000   0.4625
   0.250   0.5360   0.00790   0.00204  -0.1088  0.6390  0.5237  -0.8969   0.0000   0.0000   0.0000   0.4511
   0.500   0.5633   0.00781   0.00205  -0.1088  0.6363  0.5657  -0.9149   0.0000   0.0000   0.0000   0.4409
   0.750   0.5906   0.00772   0.00208  -0.1088  0.6333  0.6078  -0.9329   0.0000   0.0000   0.0000   0.4315
   1.000   0.6179   0.00764   0.00213  -0.1087  0.6300  0.6489  -0.9510   0.0000   0.0000   0.0000   0.4230
   1.250   0.6445   0.00755   0.00217  -0.1085  0.6268  0.6968  -0.9708   0.0000   0.0000   0.0000   0.4150
   1.500   0.6707   0.00746   0.00222  -0.1082  0.6236  0.7476  -0.9904   0.0000   0.0000   0.0000   0.4077
   1.750   0.6969   0.00737   0.00228  -0.1078  0.6197  0.7957  -1.0099   0.0000   0.0000   0.0000   0.4008
   2.000   0.7227   0.00728   0.00233  -0.1073  0.6159  0.8454  -1.0294   0.0000   0.0000   0.0000   0.3943
   2.250   0.7538   0.00717   0.00239  -0.1079  0.6122  0.9149  -1.0534   0.0000   0.0000   0.0000   0.3886
   2.500   0.8116   0.00718   0.00245  -0.1147  0.6074  0.9779  -1.0936   0.0000   0.0000   0.0000   0.3865
   2.750   0.8480   0.00727   0.00250  -0.1167  0.6030  1.0001  -1.1217   0.0000   0.0000   0.0000   0.3825
   3.000   0.8742   0.00733   0.00256  -0.1165  0.5977  1.0001  -1.1455   0.0000   0.0000   0.0000   0.3778
   3.250   0.8998   0.00742   0.00261  -0.1161  0.5923  1.0001  -1.1700   0.0000   0.0000   0.0000   0.3733
   3.500   0.9258   0.00749   0.00269  -0.1158  0.5852  1.0001  -1.1995   0.0000   0.0000   0.0000   0.3691
   3.750   0.9514   0.00759   0.00276  -0.1155  0.5774  1.0001  -1.2336   0.0000   0.0000   0.0000   0.3651
   4.000   0.9768   0.00770   0.00284  -0.1151  0.5692  1.0001  -1.2689   0.0000   0.0000   0.0000   0.3612
   4.250   1.0020   0.00781   0.00294  -0.1147  0.5605  1.0001  -1.3043   0.0000   0.0000   0.0000   0.3575
   4.500   1.0271   0.00794   0.00304  -0.1142  0.5511  1.0001  -1.3398   0.0000   0.0000   0.0000   0.3540
   4.750   1.0521   0.00809   0.00316  -0.1138  0.5416  1.0001  -1.3753   0.0000   0.0000   0.0000   0.3506
   5.000   1.0770   0.00824   0.00330  -0.1134  0.5321  1.0001  -1.4110   0.0000   0.0000   0.0000   0.3474
   5.250   1.1017   0.00840   0.00345  -0.1129  0.5227  1.0001  -1.4492   0.0000   0.0000   0.0000   0.3443
   5.500   1.1258   0.00859   0.00361  -0.1123  0.5123  1.0001  -1.4881   0.0000   0.0000   0.0000   0.3413
   5.750   1.1496   0.00880   0.00380  -0.1117  0.5014  1.0001  -1.5270   0.0000   0.0000   0.0000   0.3384
   6.000   1.1730   0.00902   0.00399  -0.1110  0.4896  1.0001  -1.5658   0.0000   0.0000   0.0000   0.3355
   6.250   1.1947   0.00931   0.00423  -0.1101  0.4743  1.0001  -1.6045   0.0000   0.0000   0.0000   0.3327
   6.500   1.2152   0.00966   0.00451  -0.1089  0.4560  1.0001  -1.6866   0.0000   0.0000   0.0000   0.3298
   6.750   1.2349   0.01004   0.00483  -0.1076  0.4376  1.0001  -1.7981   0.0000   0.0000   0.0000   0.3270
   7.000   1.2541   0.01043   0.00516  -0.1063  0.4205  1.0001  -1.9102   0.0000   0.0000   0.0000   0.3242
   7.250   1.2700   0.01095   0.00557  -0.1044  0.3965  1.0001  -2.0245   0.0000   0.0000   0.0000   0.3213
   7.500   1.2818   0.01162   0.00610  -0.1018  0.3668  1.0001  -2.1300   0.0000   0.0000   0.0000   0.3182
   7.750   1.2890   0.01237   0.00669  -0.0984  0.3363  1.0001  -2.2247   0.0000   0.0000   0.0000   0.3148
   8.000   1.2936   0.01324   0.00741  -0.0948  0.3054  1.0001  -2.3134   0.0000   0.0000   0.0000   0.3113
   8.250   1.2992   0.01420   0.00822  -0.0916  0.2775  1.0001  -2.4056   0.0000   0.0000   0.0000   0.3082
   8.500   1.3051   0.01526   0.00916  -0.0888  0.2526  1.0001  -2.4989   0.0000   0.0000   0.0000   0.3053
   8.750   1.3112   0.01645   0.01024  -0.0863  0.2281  1.0001  -2.5935   0.0000   0.0000   0.0000   0.3027
   9.000   1.3181   0.01772   0.01141  -0.0842  0.2063  1.0001  -2.6907   0.0000   0.0000   0.0000   0.3003
   9.250   1.3270   0.01895   0.01256  -0.0825  0.1889  1.0001  -2.7950   0.0000   0.0000   0.0000   0.2981
   9.500   1.3369   0.02015   0.01370  -0.0810  0.1739  1.0001  -2.9032   0.0000   0.0000   0.0000   0.2961
   9.750   1.3458   0.02144   0.01493  -0.0794  0.1579  1.0001  -3.0094   0.0000   0.0000   0.0000   0.2941
  10.000   1.3543   0.02277   0.01620  -0.0778  0.1422  1.0001  -3.1155   0.0000   0.0000   0.0000   0.2921
  10.250   1.3604   0.02428   0.01763  -0.0760  0.1235  1.0001  -3.2148   0.0000   0.0000   0.0000   0.2901
  10.500   1.3638   0.02600   0.01924  -0.0741  0.1024  1.0001  -3.3062   0.0000   0.0000   0.0000   0.2881
  10.750   1.3666   0.02778   0.02092  -0.0722  0.0841  1.0001  -3.3959   0.0000   0.0000   0.0000   0.2861
  11.000   1.3710   0.02946   0.02254  -0.0704  0.0708  1.0001  -3.4915   0.0000   0.0000   0.0000   0.2842
  11.250   1.3773   0.03102   0.02408  -0.0689  0.0614  1.0001  -3.5940   0.0000   0.0000   0.0000   0.2824
  11.500   1.3843   0.03254   0.02558  -0.0675  0.0541  1.0001  -3.6999   0.0000   0.0000   0.0000   0.2806
  11.750   1.3919   0.03403   0.02707  -0.0661  0.0483  1.0001  -3.8081   0.0000   0.0000   0.0000   0.2789
  12.000   1.3996   0.03554   0.02859  -0.0649  0.0425  1.0001  -3.9257   0.0000   0.0000   0.0000   0.2773
  12.250   1.4068   0.03714   0.03019  -0.0636  0.0364  1.0001  -4.0428   0.0000   0.0000   0.0000   0.2757
  12.500   1.4133   0.03882   0.03186  -0.0624  0.0312  1.0001  -4.1588   0.0000   0.0000   0.0000   0.2741
  12.750   1.4201   0.04052   0.03357  -0.0613  0.0274  1.0001  -4.2763   0.0000   0.0000   0.0000   0.2726
  13.000   1.4272   0.04224   0.03532  -0.0602  0.0247  1.0001  -4.3954   0.0000   0.0000   0.0000   0.2712
  13.250   1.4340   0.04400   0.03711  -0.0592  0.0227  1.0001  -4.5142   0.0000   0.0000   0.0000   0.2698
  13.500   1.4411   0.04577   0.03893  -0.0583  0.0210  1.0001  -4.6351   0.0000   0.0000   0.0000   0.2684
  13.750   1.4476   0.04764   0.04084  -0.0574  0.0197  1.0001  -4.7540   0.0000   0.0000   0.0000   0.2671
  14.000   1.4547   0.04948   0.04273  -0.0566  0.0186  1.0001  -4.8757   0.0000   0.0000   0.0000   0.2658
  14.250   1.4607   0.05144   0.04474  -0.0558  0.0176  1.0001  -4.9946   0.0000   0.0000   0.0000   0.2646
  14.500   1.4658   0.05353   0.04688  -0.0550  0.0169  1.0001  -5.1098   0.0000   0.0000   0.0000   0.2634
  14.750   1.4720   0.05555   0.04897  -0.0543  0.0162  1.0001  -5.2379   0.0000   0.0000   0.0000   0.2623
  15.000   1.4773   0.05766   0.05115  -0.0537  0.0156  1.0001  -5.3658   0.0000   0.0000   0.0000   0.2612
  15.250   1.4819   0.05989   0.05344  -0.0531  0.0151  1.0001  -5.4913   0.0000   0.0000   0.0000   0.2601
  15.500   1.4856   0.06226   0.05586  -0.0525  0.0146  1.0001  -5.6132   0.0000   0.0000   0.0000   0.2591
  15.750   1.4880   0.06480   0.05847  -0.0520  0.0143  1.0001  -5.7287   0.0000   0.0000   0.0000   0.2581
  16.000   1.4905   0.06737   0.06111  -0.0516  0.0140  1.0001  -5.8438   0.0000   0.0000   0.0000   0.2572
  16.250   1.4933   0.06994   0.06376  -0.0512  0.0137  1.0001  -5.9638   0.0000   0.0000   0.0000   0.2563
  16.500   1.4954   0.07263   0.06653  -0.0509  0.0135  1.0001  -6.0872   0.0000   0.0000   0.0000   0.2555
  16.750   1.4968   0.07543   0.06941  -0.0507  0.0133  1.0001  -6.2074   0.0000   0.0000   0.0000   0.2547
  17.000   1.4975   0.07835   0.07241  -0.0505  0.0130  1.0001  -6.3238   0.0000   0.0000   0.0000   0.2540
  17.250   1.4976   0.08139   0.07554  -0.0504  0.0128  1.0001  -6.4368   0.0000   0.0000   0.0000   0.2533
  17.500   1.4969   0.08455   0.07879  -0.0504  0.0126  1.0001  -6.5460   0.0000   0.0000   0.0000   0.2528
  17.750   1.4956   0.08785   0.08217  -0.0505  0.0124  1.0001  -6.6514   0.0000   0.0000   0.0000   0.2523
  18.000   1.4936   0.09128   0.08568  -0.0507  0.0122  1.0001  -6.7520   0.0000   0.0000   0.0000   0.2518
  18.250   1.4906   0.09487   0.08935  -0.0510  0.0120  1.0001  -6.8666   0.0000   0.0000   0.0000   0.2515
  18.500   1.4864   0.09867   0.09323  -0.0515  0.0118  1.0001  -6.9770   0.0000   0.0000   0.0000   0.2513
  18.750   1.4810   0.10271   0.09736  -0.0521  0.0117  1.0001  -7.0759   0.0000   0.0000   0.0000   0.2512
  19.000   1.4757   0.10678   0.10152  -0.0529  0.0115  1.0001  -7.1734   0.0000   0.0000   0.0000   0.2512
  19.250   1.4726   0.11054   0.10538  -0.0536  0.0114  1.0001  -7.2876   0.0000   0.0000   0.0000   0.2512
  19.500   1.4691   0.11441   0.10935  -0.0546  0.0113  1.0001  -7.3966   0.0000   0.0000   0.0000   0.2513
  19.750   1.4654   0.11836   0.11339  -0.0556  0.0112  1.0001  -7.5028   0.0000   0.0000   0.0000   0.2514
  20.000   1.4617   0.12235   0.11748  -0.0568  0.0111  1.0001  -7.6064   0.0000   0.0000   0.0000   0.2517


