xflr5 v6.61

 Calculated polar for: QX0026 v32

 1 1 Reynolds number fixed          Mach number fixed         

 xtrf =   1.000 (top)        1.000 (bottom)
 Mach =   0.000     Re =     0.860 e 6     Ncrit =   5.000

  alpha     CL        CD       CDp       Cm    Top Xtr Bot Xtr   Cpmin    Chinge    XCp    
 ------- -------- --------- --------- -------- ------- ------- -------- --------- ---------
 -10.000  -0.5871   0.01637   0.01041  -0.1063  0.7159  0.0087  -8.2143   0.0000   0.0000   0.0000   0.0525
  -9.750  -0.5622   0.01584   0.00979  -0.1062  0.7138  0.0090  -7.8967   0.0000   0.0000   0.0000   0.0447
  -9.500  -0.5373   0.01529   0.00918  -0.1060  0.7117  0.0094  -7.5828   0.0000   0.0000   0.0000   0.0363
  -9.250  -0.5117   0.01486   0.00869  -0.1059  0.7098  0.0098  -7.2634   0.0000   0.0000   0.0000   0.0265
  -9.000  -0.4855   0.01445   0.00823  -0.1059  0.7077  0.0102  -6.9463   0.0000   0.0000   0.0000   0.0153
  -8.750  -0.4592   0.01407   0.00780  -0.1059  0.7058  0.0106  -6.6519   0.0000   0.0000   0.0000   0.0027
  -8.500  -0.4327   0.01371   0.00738  -0.1058  0.7039  0.0111  -6.3693   0.0000   0.0000   0.0000  -0.0115
  -8.250  -0.4062   0.01337   0.00696  -0.1058  0.7020  0.0115  -6.0911   0.0000   0.0000   0.0000  -0.0277
  -8.000  -0.3798   0.01300   0.00655  -0.1057  0.7003  0.0122  -5.8160   0.0000   0.0000   0.0000  -0.0460
  -7.750  -0.3528   0.01269   0.00621  -0.1057  0.6985  0.0129  -5.5401   0.0000   0.0000   0.0000  -0.0677
  -7.500  -0.3256   0.01240   0.00588  -0.1058  0.6965  0.0136  -5.2693   0.0000   0.0000   0.0000  -0.0934
  -7.250  -0.2983   0.01214   0.00556  -0.1058  0.6946  0.0142  -5.0035   0.0000   0.0000   0.0000  -0.1240
  -7.000  -0.2712   0.01184   0.00525  -0.1058  0.6928  0.0152  -4.7422   0.0000   0.0000   0.0000  -0.1604
  -6.750  -0.2438   0.01160   0.00498  -0.1059  0.6911  0.0163  -4.4826   0.0000   0.0000   0.0000  -0.2057
  -6.500  -0.2162   0.01139   0.00472  -0.1059  0.6895  0.0173  -4.2295   0.0000   0.0000   0.0000  -0.2628
  -6.250  -0.1887   0.01114   0.00445  -0.1060  0.6878  0.0185  -3.9823   0.0000   0.0000   0.0000  -0.3365
  -6.000  -0.1609   0.01092   0.00422  -0.1061  0.6858  0.0198  -3.7388   0.0000   0.0000   0.0000  -0.4368
  -5.750  -0.1331   0.01073   0.00399  -0.1062  0.6836  0.0212  -3.5012   0.0000   0.0000   0.0000  -0.5794
  -5.500  -0.1053   0.01052   0.00377  -0.1062  0.6814  0.0230  -3.2684   0.0000   0.0000   0.0000  -0.7960
  -5.250  -0.0774   0.01035   0.00357  -0.1063  0.6795  0.0248  -3.0415   0.0000   0.0000   0.0000  -1.1713
  -5.000  -0.0496   0.01016   0.00337  -0.1064  0.6778  0.0271  -2.8204   0.0000   0.0000   0.0000  -1.9643
  -4.750  -0.0215   0.00999   0.00319  -0.1065  0.6759  0.0295  -2.6042   0.0000   0.0000   0.0000  -4.8625
  -4.500   0.0066   0.00982   0.00302  -0.1067  0.6739  0.0323  -2.3937   0.0000   0.0000   0.0000  16.7622
  -4.250   0.0347   0.00966   0.00286  -0.1068  0.6718  0.0359  -2.1892   0.0000   0.0000   0.0000   3.4065
  -4.000   0.0628   0.00951   0.00271  -0.1069  0.6700  0.0406  -1.9974   0.0000   0.0000   0.0000   1.9939
  -3.750   0.0909   0.00937   0.00257  -0.1070  0.6683  0.0462  -1.8213   0.0000   0.0000   0.0000   1.4542
  -3.250   0.1473   0.00906   0.00232  -0.1073  0.6641  0.0641  -1.4863   0.0000   0.0000   0.0000   0.9925
  -3.000   0.1754   0.00890   0.00221  -0.1074  0.6616  0.0777  -1.3486   0.0000   0.0000   0.0000   0.8732
  -2.750   0.2033   0.00874   0.00210  -0.1076  0.6593  0.0953  -1.2186   0.0000   0.0000   0.0000   0.7871
  -2.500   0.2312   0.00859   0.00200  -0.1077  0.6572  0.1174  -1.0922   0.0000   0.0000   0.0000   0.7219
  -2.250   0.2594   0.00844   0.00193  -0.1078  0.6550  0.1399  -0.9757   0.0000   0.0000   0.0000   0.6705
  -2.000   0.2875   0.00830   0.00186  -0.1080  0.6526  0.1638  -0.8655   0.0000   0.0000   0.0000   0.6292
  -1.750   0.3156   0.00816   0.00180  -0.1082  0.6502  0.1911  -0.7650   0.0000   0.0000   0.0000   0.5953
  -1.500   0.3433   0.00800   0.00174  -0.1083  0.6478  0.2282  -0.7808   0.0000   0.0000   0.0000   0.5671
  -1.250   0.3711   0.00786   0.00170  -0.1084  0.6454  0.2655  -0.7971   0.0000   0.0000   0.0000   0.5431
  -1.000   0.3991   0.00771   0.00168  -0.1085  0.6427  0.3060  -0.8135   0.0000   0.0000   0.0000   0.5224
  -0.750   0.4271   0.00760   0.00166  -0.1087  0.6400  0.3416  -0.8299   0.0000   0.0000   0.0000   0.5043
  -0.500   0.4550   0.00751   0.00165  -0.1088  0.6374  0.3761  -0.8463   0.0000   0.0000   0.0000   0.4884
  -0.250   0.4830   0.00743   0.00164  -0.1089  0.6349  0.4077  -0.8629   0.0000   0.0000   0.0000   0.4744
   0.000   0.5111   0.00734   0.00165  -0.1091  0.6319  0.4400  -0.8813   0.0000   0.0000   0.0000   0.4618
   0.250   0.5392   0.00727   0.00166  -0.1092  0.6287  0.4717  -0.8996   0.0000   0.0000   0.0000   0.4506
   0.500   0.5670   0.00721   0.00167  -0.1093  0.6257  0.5021  -0.9179   0.0000   0.0000   0.0000   0.4404
   0.750   0.5948   0.00713   0.00169  -0.1094  0.6227  0.5413  -0.9361   0.0000   0.0000   0.0000   0.4312
   1.000   0.6225   0.00705   0.00173  -0.1094  0.6191  0.5813  -0.9544   0.0000   0.0000   0.0000   0.4228
   1.250   0.6500   0.00699   0.00176  -0.1094  0.6156  0.6210  -0.9746   0.0000   0.0000   0.0000   0.4150
   1.500   0.6771   0.00691   0.00180  -0.1094  0.6121  0.6667  -0.9947   0.0000   0.0000   0.0000   0.4079
   1.750   0.7039   0.00682   0.00186  -0.1092  0.6079  0.7158  -1.0146   0.0000   0.0000   0.0000   0.4012
   2.000   0.7302   0.00676   0.00191  -0.1089  0.6039  0.7616  -1.0343   0.0000   0.0000   0.0000   0.3949
   2.250   0.7566   0.00669   0.00198  -0.1086  0.5998  0.8056  -1.0556   0.0000   0.0000   0.0000   0.3890
   2.500   0.7822   0.00661   0.00203  -0.1082  0.5950  0.8559  -1.0773   0.0000   0.0000   0.0000   0.3834
   2.750   0.8142   0.00652   0.00211  -0.1090  0.5899  0.9287  -1.1028   0.0000   0.0000   0.0000   0.3787
   3.000   0.8714   0.00658   0.00219  -0.1157  0.5827  0.9887  -1.1445   0.0000   0.0000   0.0000   0.3774
   3.250   0.9045   0.00667   0.00226  -0.1170  0.5746  1.0001  -1.1736   0.0000   0.0000   0.0000   0.3737
   3.500   0.9299   0.00677   0.00233  -0.1166  0.5661  1.0001  -1.2029   0.0000   0.0000   0.0000   0.3694
   3.750   0.9552   0.00689   0.00241  -0.1162  0.5576  1.0001  -1.2372   0.0000   0.0000   0.0000   0.3654
   4.000   0.9801   0.00702   0.00250  -0.1158  0.5480  1.0001  -1.2723   0.0000   0.0000   0.0000   0.3615
   4.250   1.0051   0.00716   0.00261  -0.1153  0.5377  1.0001  -1.3074   0.0000   0.0000   0.0000   0.3578
   4.500   1.0300   0.00731   0.00273  -0.1148  0.5273  1.0001  -1.3428   0.0000   0.0000   0.0000   0.3543
   4.750   1.0551   0.00746   0.00285  -0.1144  0.5178  1.0001  -1.3784   0.0000   0.0000   0.0000   0.3509
   5.000   1.0797   0.00763   0.00299  -0.1139  0.5078  1.0001  -1.4139   0.0000   0.0000   0.0000   0.3477
   5.250   1.1040   0.00782   0.00315  -0.1134  0.4968  1.0001  -1.4521   0.0000   0.0000   0.0000   0.3445
   5.500   1.1280   0.00802   0.00332  -0.1128  0.4852  1.0001  -1.4910   0.0000   0.0000   0.0000   0.3415
   5.750   1.1513   0.00826   0.00352  -0.1121  0.4722  1.0001  -1.5294   0.0000   0.0000   0.0000   0.3386
   6.000   1.1733   0.00856   0.00375  -0.1112  0.4551  1.0001  -1.5672   0.0000   0.0000   0.0000   0.3356
   6.250   1.1941   0.00891   0.00402  -0.1101  0.4350  1.0001  -1.6051   0.0000   0.0000   0.0000   0.3327
   6.500   1.2147   0.00927   0.00431  -0.1090  0.4183  1.0001  -1.6885   0.0000   0.0000   0.0000   0.3299
   6.750   1.2348   0.00965   0.00462  -0.1078  0.3989  1.0001  -1.8007   0.0000   0.0000   0.0000   0.3271
   7.000   1.2503   0.01022   0.00504  -0.1058  0.3694  1.0001  -1.9064   0.0000   0.0000   0.0000   0.3241
   7.250   1.2624   0.01092   0.00556  -0.1033  0.3355  1.0001  -2.0109   0.0000   0.0000   0.0000   0.3209
   7.500   1.2726   0.01165   0.00612  -0.1004  0.3034  1.0001  -2.1116   0.0000   0.0000   0.0000   0.3177
   7.750   1.2803   0.01236   0.00670  -0.0971  0.2757  1.0001  -2.2075   0.0000   0.0000   0.0000   0.3143
   8.000   1.2884   0.01314   0.00735  -0.0941  0.2515  1.0001  -2.3055   0.0000   0.0000   0.0000   0.3111
   8.250   1.2969   0.01399   0.00809  -0.0915  0.2285  1.0001  -2.4055   0.0000   0.0000   0.0000   0.3082
   8.500   1.3046   0.01498   0.00897  -0.0889  0.2061  1.0001  -2.5040   0.0000   0.0000   0.0000   0.3054
   8.750   1.3131   0.01603   0.00993  -0.0867  0.1859  1.0001  -2.6056   0.0000   0.0000   0.0000   0.3029
   9.000   1.3241   0.01704   0.01088  -0.0850  0.1706  1.0001  -2.7155   0.0000   0.0000   0.0000   0.3006
   9.250   1.3347   0.01815   0.01192  -0.0834  0.1555  1.0001  -2.8253   0.0000   0.0000   0.0000   0.2985
   9.500   1.3441   0.01937   0.01306  -0.0818  0.1385  1.0001  -2.9328   0.0000   0.0000   0.0000   0.2964
   9.750   1.3510   0.02079   0.01440  -0.0800  0.1193  1.0001  -3.0333   0.0000   0.0000   0.0000   0.2944
  10.000   1.3555   0.02240   0.01589  -0.0781  0.0976  1.0001  -3.1271   0.0000   0.0000   0.0000   0.2923
  10.250   1.3600   0.02403   0.01743  -0.0761  0.0793  1.0001  -3.2212   0.0000   0.0000   0.0000   0.2902
  10.500   1.3669   0.02550   0.01885  -0.0745  0.0673  1.0001  -3.3242   0.0000   0.0000   0.0000   0.2883
  10.750   1.3753   0.02687   0.02019  -0.0730  0.0585  1.0001  -3.4331   0.0000   0.0000   0.0000   0.2864
  11.000   1.3845   0.02820   0.02150  -0.0717  0.0522  1.0001  -3.5457   0.0000   0.0000   0.0000   0.2846
  11.250   1.3941   0.02950   0.02280  -0.0704  0.0466  1.0001  -3.6605   0.0000   0.0000   0.0000   0.2829
  11.500   1.4031   0.03086   0.02416  -0.0691  0.0405  1.0001  -3.7744   0.0000   0.0000   0.0000   0.2812
  11.750   1.4108   0.03232   0.02561  -0.0677  0.0344  1.0001  -3.8873   0.0000   0.0000   0.0000   0.2795
  12.000   1.4185   0.03380   0.02708  -0.0664  0.0293  1.0001  -4.0075   0.0000   0.0000   0.0000   0.2778
  12.250   1.4264   0.03530   0.02859  -0.0652  0.0257  1.0001  -4.1293   0.0000   0.0000   0.0000   0.2762
  12.500   1.4343   0.03684   0.03015  -0.0640  0.0231  1.0001  -4.2520   0.0000   0.0000   0.0000   0.2746
  12.750   1.4430   0.03834   0.03167  -0.0629  0.0211  1.0001  -4.3790   0.0000   0.0000   0.0000   0.2731
  13.000   1.4514   0.03990   0.03327  -0.0619  0.0195  1.0001  -4.5054   0.0000   0.0000   0.0000   0.2717
  13.250   1.4599   0.04148   0.03489  -0.0610  0.0180  1.0001  -4.6337   0.0000   0.0000   0.0000   0.2703
  13.500   1.4673   0.04318   0.03662  -0.0600  0.0169  1.0001  -4.7586   0.0000   0.0000   0.0000   0.2689
  13.750   1.4759   0.04480   0.03829  -0.0591  0.0160  1.0001  -4.8889   0.0000   0.0000   0.0000   0.2676
  14.000   1.4835   0.04655   0.04008  -0.0583  0.0153  1.0001  -5.0166   0.0000   0.0000   0.0000   0.2663
  14.250   1.4902   0.04840   0.04196  -0.0574  0.0145  1.0001  -5.1425   0.0000   0.0000   0.0000   0.2650
  14.500   1.4965   0.05030   0.04392  -0.0566  0.0140  1.0001  -5.2678   0.0000   0.0000   0.0000   0.2638
  14.750   1.5034   0.05220   0.04588  -0.0559  0.0136  1.0001  -5.4046   0.0000   0.0000   0.0000   0.2626
  15.000   1.5097   0.05417   0.04790  -0.0552  0.0132  1.0001  -5.5403   0.0000   0.0000   0.0000   0.2614
  15.250   1.5154   0.05623   0.05002  -0.0545  0.0129  1.0001  -5.6741   0.0000   0.0000   0.0000   0.2603
  15.500   1.5202   0.05841   0.05226  -0.0539  0.0126  1.0001  -5.8043   0.0000   0.0000   0.0000   0.2592
  15.750   1.5243   0.06068   0.05459  -0.0533  0.0123  1.0001  -5.9324   0.0000   0.0000   0.0000   0.2582
  16.000   1.5278   0.06307   0.05704  -0.0528  0.0121  1.0001  -6.0579   0.0000   0.0000   0.0000   0.2572
  16.250   1.5303   0.06559   0.05963  -0.0523  0.0119  1.0001  -6.1869   0.0000   0.0000   0.0000   0.2562
  16.500   1.5314   0.06831   0.06241  -0.0518  0.0116  1.0001  -6.3081   0.0000   0.0000   0.0000   0.2553
  16.750   1.5329   0.07102   0.06519  -0.0514  0.0115  1.0001  -6.4324   0.0000   0.0000   0.0000   0.2544
  17.000   1.5350   0.07371   0.06797  -0.0512  0.0113  1.0001  -6.5606   0.0000   0.0000   0.0000   0.2536
  17.250   1.5365   0.07650   0.07083  -0.0510  0.0112  1.0001  -6.6867   0.0000   0.0000   0.0000   0.2529
  17.500   1.5374   0.07938   0.07379  -0.0508  0.0110  1.0001  -6.8095   0.0000   0.0000   0.0000   0.2522
  17.750   1.5376   0.08237   0.07687  -0.0508  0.0109  1.0001  -6.9290   0.0000   0.0000   0.0000   0.2515
  18.000   1.5372   0.08549   0.08006  -0.0508  0.0107  1.0001  -7.0715   0.0000   0.0000   0.0000   0.2509
  18.250   1.5362   0.08873   0.08339  -0.0509  0.0106  1.0001  -7.2107   0.0000   0.0000   0.0000   0.2504
  18.500   1.5343   0.09211   0.08685  -0.0512  0.0104  1.0001  -7.3440   0.0000   0.0000   0.0000   0.2500
  18.750   1.5318   0.09561   0.09043  -0.0515  0.0103  1.0001  -7.4723   0.0000   0.0000   0.0000   0.2496
  19.000   1.5287   0.09922   0.09414  -0.0519  0.0102  1.0001  -7.5961   0.0000   0.0000   0.0000   0.2493
  19.250   1.5251   0.10296   0.09796  -0.0525  0.0101  1.0001  -7.7152   0.0000   0.0000   0.0000   0.2491
  19.500   1.5210   0.10680   0.10188  -0.0532  0.0100  1.0001  -7.8294   0.0000   0.0000   0.0000   0.2490
  19.750   1.5163   0.11074   0.10590  -0.0540  0.0098  1.0001  -7.9383   0.0000   0.0000   0.0000   0.2490
  20.000   1.5112   0.11480   0.11005  -0.0549  0.0097  1.0001  -8.0416   0.0000   0.0000   0.0000   0.2492


