xflr5 v6.61

 Calculated polar for: QX0026 v32

 1 1 Reynolds number fixed          Mach number fixed         

 xtrf =   1.000 (top)        1.000 (bottom)
 Mach =   0.000     Re =     0.240 e 6     Ncrit =   5.000

  alpha     CL        CD       CDp       Cm    Top Xtr Bot Xtr   Cpmin    Chinge    XCp    
 ------- -------- --------- --------- -------- ------- ------- -------- --------- ---------
 -10.000  -0.5081   0.03167   0.02576  -0.1119  0.7723  0.0147  -6.7946   0.0000   0.0000   0.0000   0.0116
  -9.750  -0.4913   0.03034   0.02429  -0.1119  0.7693  0.0151  -6.5802   0.0000   0.0000   0.0000   0.0042
  -9.500  -0.4734   0.02905   0.02281  -0.1118  0.7666  0.0156  -6.3664   0.0000   0.0000   0.0000  -0.0042
  -9.250  -0.4554   0.02757   0.02105  -0.1116  0.7643  0.0164  -6.1790   0.0000   0.0000   0.0000  -0.0130
  -9.000  -0.4372   0.02590   0.01898  -0.1112  0.7620  0.0173  -6.0219   0.0000   0.0000   0.0000  -0.0224
  -8.750  -0.4162   0.02479   0.01776  -0.1110  0.7593  0.0178  -5.7958   0.0000   0.0000   0.0000  -0.0350
  -8.500  -0.3937   0.02395   0.01682  -0.1109  0.7567  0.0185  -5.5746   0.0000   0.0000   0.0000  -0.0500
  -8.250  -0.3711   0.02300   0.01570  -0.1106  0.7544  0.0192  -5.3765   0.0000   0.0000   0.0000  -0.0668
  -8.000  -0.3482   0.02200   0.01447  -0.1103  0.7524  0.0202  -5.1943   0.0000   0.0000   0.0000  -0.0859
  -7.750  -0.3248   0.02108   0.01339  -0.1100  0.7496  0.0211  -5.0042   0.0000   0.0000   0.0000  -0.1083
  -7.500  -0.3003   0.02051   0.01279  -0.1099  0.7471  0.0222  -4.7687   0.0000   0.0000   0.0000  -0.1364
  -7.250  -0.2753   0.01991   0.01205  -0.1097  0.7449  0.0238  -4.5534   0.0000   0.0000   0.0000  -0.1698
  -7.000  -0.2506   0.01924   0.01125  -0.1095  0.7430  0.0252  -4.3472   0.0000   0.0000   0.0000  -0.2094
  -6.750  -0.2254   0.01869   0.01065  -0.1094  0.7410  0.0265  -4.1297   0.0000   0.0000   0.0000  -0.2588
  -6.500  -0.2000   0.01816   0.01001  -0.1092  0.7383  0.0284  -3.9245   0.0000   0.0000   0.0000  -0.3214
  -6.250  -0.1746   0.01767   0.00949  -0.1091  0.7360  0.0302  -3.7086   0.0000   0.0000   0.0000  -0.4026
  -6.000  -0.1486   0.01722   0.00894  -0.1090  0.7339  0.0325  -3.5022   0.0000   0.0000   0.0000  -0.5139
  -5.750  -0.1228   0.01676   0.00842  -0.1088  0.7323  0.0345  -3.2968   0.0000   0.0000   0.0000  -0.6720
  -5.500  -0.0964   0.01639   0.00798  -0.1087  0.7302  0.0375  -3.0933   0.0000   0.0000   0.0000  -0.9204
  -5.250  -0.0704   0.01601   0.00760  -0.1087  0.7277  0.0407  -2.8907   0.0000   0.0000   0.0000  -1.3478
  -5.000  -0.0441   0.01565   0.00720  -0.1086  0.7253  0.0441  -2.6946   0.0000   0.0000   0.0000  -2.2933
  -4.750  -0.0174   0.01533   0.00683  -0.1085  0.7233  0.0488  -2.4990   0.0000   0.0000   0.0000  -6.1712
  -4.500   0.0095   0.01502   0.00648  -0.1085  0.7215  0.0546  -2.3060   0.0000   0.0000   0.0000  12.0232
  -4.250   0.0361   0.01473   0.00620  -0.1084  0.7190  0.0622  -2.1267   0.0000   0.0000   0.0000   3.3401
  -4.000   0.0627   0.01446   0.00595  -0.1083  0.7163  0.0725  -1.9597   0.0000   0.0000   0.0000   2.0241
  -3.750   0.0895   0.01419   0.00571  -0.1083  0.7140  0.0874  -1.7950   0.0000   0.0000   0.0000   1.4902
  -3.500   0.1165   0.01393   0.00549  -0.1083  0.7121  0.1079  -1.6330   0.0000   0.0000   0.0000   1.2008
  -3.250   0.1437   0.01367   0.00529  -0.1084  0.7104  0.1346  -1.4786   0.0000   0.0000   0.0000   1.0197
  -3.000   0.1701   0.01346   0.00518  -0.1083  0.7077  0.1652  -1.3439   0.0000   0.0000   0.0000   0.8987
  -2.750   0.1967   0.01324   0.00508  -0.1083  0.7051  0.2010  -1.2194   0.0000   0.0000   0.0000   0.8099
  -2.500   0.2235   0.01301   0.00499  -0.1083  0.7030  0.2437  -1.0972   0.0000   0.0000   0.0000   0.7420
  -2.250   0.2505   0.01280   0.00489  -0.1083  0.7011  0.2900  -0.9845   0.0000   0.0000   0.0000   0.6882
  -2.000   0.2775   0.01261   0.00482  -0.1083  0.6990  0.3379  -0.8773   0.0000   0.0000   0.0000   0.6447
  -1.750   0.3036   0.01248   0.00483  -0.1082  0.6957  0.3829  -0.7745   0.0000   0.0000   0.0000   0.6095
  -1.500   0.3303   0.01234   0.00480  -0.1080  0.6931  0.4255  -0.7648   0.0000   0.0000   0.0000   0.5795
  -1.250   0.3573   0.01219   0.00475  -0.1079  0.6909  0.4688  -0.7805   0.0000   0.0000   0.0000   0.5537
  -1.000   0.3843   0.01205   0.00471  -0.1078  0.6891  0.5135  -0.7964   0.0000   0.0000   0.0000   0.5314
  -0.750   0.4099   0.01196   0.00478  -0.1075  0.6860  0.5594  -0.8110   0.0000   0.0000   0.0000   0.5125
  -0.500   0.4358   0.01186   0.00483  -0.1071  0.6833  0.6050  -0.8264   0.0000   0.0000   0.0000   0.4955
  -0.250   0.4619   0.01174   0.00483  -0.1067  0.6808  0.6546  -0.8435   0.0000   0.0000   0.0000   0.4803
   0.000   0.4883   0.01160   0.00480  -0.1062  0.6786  0.7040  -0.8611   0.0000   0.0000   0.0000   0.4664
   0.250   0.5128   0.01153   0.00490  -0.1055  0.6751  0.7558  -0.8773   0.0000   0.0000   0.0000   0.4541
   0.500   0.5383   0.01143   0.00495  -0.1048  0.6720  0.8133  -0.8941   0.0000   0.0000   0.0000   0.4427
   0.750   0.5709   0.01132   0.00496  -0.1055  0.6696  0.8768  -0.9149   0.0000   0.0000   0.0000   0.4325
   1.000   0.6239   0.01126   0.00491  -0.1108  0.6677  0.9455  -0.9482   0.0000   0.0000   0.0000   0.4249
   1.250   0.6688   0.01134   0.00500  -0.1147  0.6638  0.9978  -0.9774   0.0000   0.0000   0.0000   0.4185
   1.500   0.6960   0.01140   0.00502  -0.1148  0.6603  1.0001  -0.9973   0.0000   0.0000   0.0000   0.4115
   1.750   0.7225   0.01144   0.00500  -0.1146  0.6576  1.0001  -1.0171   0.0000   0.0000   0.0000   0.4048
   2.000   0.7474   0.01155   0.00510  -0.1142  0.6540  1.0001  -1.0363   0.0000   0.0000   0.0000   0.3987
   2.250   0.7729   0.01164   0.00518  -0.1138  0.6503  1.0001  -1.0575   0.0000   0.0000   0.0000   0.3929
   2.500   0.7996   0.01168   0.00517  -0.1136  0.6472  1.0001  -1.0798   0.0000   0.0000   0.0000   0.3874
   2.750   0.8249   0.01178   0.00528  -0.1133  0.6431  1.0001  -1.1011   0.0000   0.0000   0.0000   0.3823
   3.000   0.8506   0.01187   0.00536  -0.1129  0.6389  1.0001  -1.1249   0.0000   0.0000   0.0000   0.3775
   3.250   0.8776   0.01192   0.00537  -0.1128  0.6359  1.0001  -1.1502   0.0000   0.0000   0.0000   0.3730
   3.500   0.9022   0.01204   0.00553  -0.1124  0.6308  1.0001  -1.1783   0.0000   0.0000   0.0000   0.3687
   3.750   0.9284   0.01211   0.00559  -0.1121  0.6264  1.0001  -1.2109   0.0000   0.0000   0.0000   0.3646
   4.000   0.9538   0.01220   0.00570  -0.1118  0.6215  1.0001  -1.2451   0.0000   0.0000   0.0000   0.3607
   4.250   0.9793   0.01229   0.00580  -0.1114  0.6162  1.0001  -1.2804   0.0000   0.0000   0.0000   0.3569
   4.500   1.0045   0.01238   0.00591  -0.1110  0.6104  1.0001  -1.3158   0.0000   0.0000   0.0000   0.3534
   4.750   1.0301   0.01243   0.00596  -0.1106  0.6041  1.0001  -1.3518   0.0000   0.0000   0.0000   0.3500
   5.000   1.0544   0.01254   0.00609  -0.1101  0.5964  1.0001  -1.3868   0.0000   0.0000   0.0000   0.3466
   5.250   1.0792   0.01263   0.00620  -0.1096  0.5889  1.0001  -1.4228   0.0000   0.0000   0.0000   0.3434
   5.500   1.1042   0.01272   0.00629  -0.1091  0.5817  1.0001  -1.4624   0.0000   0.0000   0.0000   0.3404
   5.750   1.1277   0.01287   0.00649  -0.1084  0.5733  1.0001  -1.5007   0.0000   0.0000   0.0000   0.3374
   6.000   1.1514   0.01302   0.00667  -0.1078  0.5647  1.0001  -1.5394   0.0000   0.0000   0.0000   0.3345
   6.250   1.1749   0.01318   0.00684  -0.1071  0.5559  1.0001  -1.5786   0.0000   0.0000   0.0000   0.3317
   6.500   1.1982   0.01335   0.00703  -0.1064  0.5472  1.0001  -1.6311   0.0000   0.0000   0.0000   0.3290
   6.750   1.2208   0.01355   0.00726  -0.1056  0.5377  1.0001  -1.7474   0.0000   0.0000   0.0000   0.3264
   7.000   1.2425   0.01378   0.00751  -0.1046  0.5271  1.0001  -1.8641   0.0000   0.0000   0.0000   0.3237
   7.250   1.2635   0.01404   0.00777  -0.1035  0.5158  1.0001  -1.9813   0.0000   0.0000   0.0000   0.3211
   7.500   1.2834   0.01433   0.00808  -0.1023  0.5032  1.0001  -2.1015   0.0000   0.0000   0.0000   0.3185
   7.750   1.3011   0.01468   0.00842  -0.1006  0.4875  1.0001  -2.2230   0.0000   0.0000   0.0000   0.3158
   8.000   1.3165   0.01511   0.00880  -0.0986  0.4703  1.0001  -2.3405   0.0000   0.0000   0.0000   0.3130
   8.500   1.3362   0.01626   0.00984  -0.0929  0.4312  1.0001  -2.5504   0.0000   0.0000   0.0000   0.3068
   8.750   1.3428   0.01704   0.01055  -0.0898  0.4105  1.0001  -2.6477   0.0000   0.0000   0.0000   0.3037
   9.000   1.3463   0.01805   0.01146  -0.0865  0.3872  1.0001  -2.7371   0.0000   0.0000   0.0000   0.3007
   9.250   1.3485   0.01929   0.01260  -0.0834  0.3622  1.0001  -2.8227   0.0000   0.0000   0.0000   0.2979
   9.500   1.3491   0.02078   0.01398  -0.0805  0.3369  1.0001  -2.9036   0.0000   0.0000   0.0000   0.2952
   9.750   1.3495   0.02244   0.01553  -0.0779  0.3112  1.0001  -2.9837   0.0000   0.0000   0.0000   0.2928
  10.000   1.3492   0.02427   0.01724  -0.0754  0.2859  1.0001  -3.0616   0.0000   0.0000   0.0000   0.2905
  10.250   1.3491   0.02615   0.01901  -0.0731  0.2620  1.0001  -3.1404   0.0000   0.0000   0.0000   0.2884
  10.500   1.3501   0.02800   0.02077  -0.0711  0.2400  1.0001  -3.2230   0.0000   0.0000   0.0000   0.2863
  10.750   1.3514   0.02988   0.02256  -0.0691  0.2201  1.0001  -3.3063   0.0000   0.0000   0.0000   0.2843
  11.000   1.3538   0.03171   0.02433  -0.0672  0.2015  1.0001  -3.3935   0.0000   0.0000   0.0000   0.2824
  11.250   1.3561   0.03358   0.02614  -0.0655  0.1844  1.0001  -3.4808   0.0000   0.0000   0.0000   0.2806
  11.500   1.3590   0.03543   0.02795  -0.0638  0.1674  1.0001  -3.5701   0.0000   0.0000   0.0000   0.2788
  11.750   1.3608   0.03741   0.02987  -0.0622  0.1500  1.0001  -3.6557   0.0000   0.0000   0.0000   0.2770
  12.000   1.3622   0.03948   0.03187  -0.0606  0.1308  1.0001  -3.7402   0.0000   0.0000   0.0000   0.2753
  12.250   1.3622   0.04173   0.03404  -0.0591  0.1114  1.0001  -3.8264   0.0000   0.0000   0.0000   0.2737
  12.500   1.3615   0.04411   0.03633  -0.0576  0.0939  1.0001  -3.9100   0.0000   0.0000   0.0000   0.2721
  12.750   1.3617   0.04648   0.03865  -0.0563  0.0801  1.0001  -3.9965   0.0000   0.0000   0.0000   0.2707
  13.000   1.3631   0.04880   0.04095  -0.0551  0.0700  1.0001  -4.0872   0.0000   0.0000   0.0000   0.2693
  13.250   1.3654   0.05110   0.04326  -0.0540  0.0619  1.0001  -4.1809   0.0000   0.0000   0.0000   0.2679
  13.500   1.3679   0.05343   0.04561  -0.0531  0.0550  1.0001  -4.2754   0.0000   0.0000   0.0000   0.2666
  13.750   1.3702   0.05582   0.04802  -0.0522  0.0491  1.0001  -4.3689   0.0000   0.0000   0.0000   0.2654
  14.000   1.3725   0.05826   0.05050  -0.0514  0.0438  1.0001  -4.4620   0.0000   0.0000   0.0000   0.2643
  14.250   1.3747   0.06077   0.05306  -0.0507  0.0393  1.0001  -4.5545   0.0000   0.0000   0.0000   0.2632
  14.500   1.3767   0.06334   0.05569  -0.0501  0.0356  1.0001  -4.6458   0.0000   0.0000   0.0000   0.2622
  14.750   1.3782   0.06602   0.05842  -0.0496  0.0329  1.0001  -4.7347   0.0000   0.0000   0.0000   0.2612
  15.000   1.3786   0.06886   0.06132  -0.0491  0.0307  1.0001  -4.8224   0.0000   0.0000   0.0000   0.2603
  15.250   1.3797   0.07170   0.06425  -0.0487  0.0290  1.0001  -4.9165   0.0000   0.0000   0.0000   0.2595
  15.500   1.3796   0.07472   0.06735  -0.0484  0.0277  1.0001  -5.0057   0.0000   0.0000   0.0000   0.2587
  15.750   1.3779   0.07796   0.07066  -0.0482  0.0267  1.0001  -5.0878   0.0000   0.0000   0.0000   0.2581
  16.000   1.3777   0.08110   0.07391  -0.0481  0.0257  1.0001  -5.1735   0.0000   0.0000   0.0000   0.2575
  16.250   1.3765   0.08440   0.07731  -0.0481  0.0248  1.0001  -5.2554   0.0000   0.0000   0.0000   0.2569
  16.500   1.3744   0.08787   0.08087  -0.0483  0.0241  1.0001  -5.3330   0.0000   0.0000   0.0000   0.2565
  16.750   1.3709   0.09156   0.08464  -0.0485  0.0235  1.0001  -5.4029   0.0000   0.0000   0.0000   0.2562
  17.000   1.3679   0.09523   0.08841  -0.0488  0.0230  1.0001  -5.4796   0.0000   0.0000   0.0000   0.2560
  17.250   1.3663   0.09876   0.09206  -0.0492  0.0225  1.0001  -5.5625   0.0000   0.0000   0.0000   0.2557
  17.500   1.3644   0.10235   0.09576  -0.0498  0.0219  1.0001  -5.6440   0.0000   0.0000   0.0000   0.2556
  17.750   1.3623   0.10600   0.09950  -0.0504  0.0214  1.0001  -5.7243   0.0000   0.0000   0.0000   0.2555
  18.000   1.3601   0.10969   0.10328  -0.0511  0.0209  1.0001  -5.8040   0.0000   0.0000   0.0000   0.2555
  18.250   1.3576   0.11344   0.10712  -0.0520  0.0205  1.0001  -5.8819   0.0000   0.0000   0.0000   0.2556
  18.500   1.3547   0.11729   0.11102  -0.0530  0.0201  1.0001  -5.9556   0.0000   0.0000   0.0000   0.2558
  18.750   1.3536   0.12087   0.11470  -0.0539  0.0197  1.0001  -6.0356   0.0000   0.0000   0.0000   0.2560
  19.000   1.3535   0.12431   0.11826  -0.0549  0.0194  1.0001  -6.1261   0.0000   0.0000   0.0000   0.2561
  19.250   1.3535   0.12775   0.12180  -0.0560  0.0190  1.0001  -6.2372   0.0000   0.0000   0.0000   0.2563
  19.500   1.3537   0.13116   0.12531  -0.0572  0.0187  1.0001  -6.3496   0.0000   0.0000   0.0000   0.2565
  19.750   1.3541   0.13455   0.12879  -0.0584  0.0184  1.0001  -6.4630   0.0000   0.0000   0.0000   0.2568
  20.000   1.3548   0.13791   0.13223  -0.0597  0.0181  1.0001  -6.5781   0.0000   0.0000   0.0000   0.2571


