xflr5 v6.61

 Calculated polar for: QX0026 v32

 1 1 Reynolds number fixed          Mach number fixed         

 xtrf =   1.000 (top)        1.000 (bottom)
 Mach =   0.000     Re =     0.340 e 6     Ncrit =   5.000

  alpha     CL        CD       CDp       Cm    Top Xtr Bot Xtr   Cpmin    Chinge    XCp    
 ------- -------- --------- --------- -------- ------- ------- -------- --------- ---------
 -10.000  -0.5413   0.02536   0.01927  -0.1100  0.7535  0.0125  -7.3645   0.0000   0.0000   0.0000   0.0293
  -9.750  -0.5213   0.02425   0.01798  -0.1098  0.7512  0.0129  -7.1249   0.0000   0.0000   0.0000   0.0220
  -9.500  -0.5005   0.02314   0.01670  -0.1096  0.7485  0.0134  -6.8899   0.0000   0.0000   0.0000   0.0137
  -9.250  -0.4791   0.02208   0.01543  -0.1093  0.7461  0.0139  -6.6575   0.0000   0.0000   0.0000   0.0045
  -9.000  -0.4568   0.02115   0.01433  -0.1090  0.7440  0.0144  -6.4128   0.0000   0.0000   0.0000  -0.0062
  -8.750  -0.4330   0.02052   0.01361  -0.1089  0.7421  0.0150  -6.1423   0.0000   0.0000   0.0000  -0.0192
  -8.500  -0.4085   0.01994   0.01296  -0.1088  0.7395  0.0158  -5.8880   0.0000   0.0000   0.0000  -0.0343
  -8.250  -0.3841   0.01929   0.01218  -0.1087  0.7370  0.0167  -5.6551   0.0000   0.0000   0.0000  -0.0511
  -8.000  -0.3596   0.01860   0.01134  -0.1084  0.7348  0.0175  -5.4357   0.0000   0.0000   0.0000  -0.0701
  -7.750  -0.3350   0.01801   0.01068  -0.1083  0.7329  0.0182  -5.1943   0.0000   0.0000   0.0000  -0.0924
  -7.500  -0.3096   0.01751   0.01009  -0.1082  0.7312  0.0191  -4.9566   0.0000   0.0000   0.0000  -0.1192
  -7.250  -0.2840   0.01699   0.00949  -0.1081  0.7289  0.0203  -4.7294   0.0000   0.0000   0.0000  -0.1510
  -7.000  -0.2583   0.01650   0.00893  -0.1080  0.7266  0.0215  -4.4979   0.0000   0.0000   0.0000  -0.1894
  -6.750  -0.2321   0.01611   0.00849  -0.1079  0.7245  0.0229  -4.2597   0.0000   0.0000   0.0000  -0.2377
  -6.500  -0.2058   0.01572   0.00798  -0.1078  0.7226  0.0245  -4.0364   0.0000   0.0000   0.0000  -0.2984
  -6.250  -0.1797   0.01529   0.00751  -0.1078  0.7210  0.0259  -3.8112   0.0000   0.0000   0.0000  -0.3762
  -6.000  -0.1530   0.01495   0.00713  -0.1077  0.7189  0.0280  -3.5885   0.0000   0.0000   0.0000  -0.4836
  -5.750  -0.1265   0.01459   0.00674  -0.1077  0.7167  0.0300  -3.3706   0.0000   0.0000   0.0000  -0.6351
  -5.500  -0.0997   0.01428   0.00637  -0.1077  0.7146  0.0323  -3.1565   0.0000   0.0000   0.0000  -0.8710
  -5.250  -0.0728   0.01395   0.00601  -0.1076  0.7126  0.0349  -2.9456   0.0000   0.0000   0.0000  -1.2809
  -5.000  -0.0456   0.01369   0.00568  -0.1076  0.7109  0.0382  -2.7382   0.0000   0.0000   0.0000  -2.1888
  -4.750  -0.0185   0.01342   0.00539  -0.1076  0.7087  0.0420  -2.5353   0.0000   0.0000   0.0000  -5.7483
  -4.500   0.0086   0.01315   0.00513  -0.1076  0.7061  0.0465  -2.3373   0.0000   0.0000   0.0000  13.1768
  -4.250   0.0359   0.01291   0.00488  -0.1076  0.7038  0.0527  -2.1452   0.0000   0.0000   0.0000   3.3354
  -4.000   0.0632   0.01267   0.00464  -0.1077  0.7018  0.0609  -1.9720   0.0000   0.0000   0.0000   1.9969
  -3.750   0.0907   0.01245   0.00441  -0.1077  0.7002  0.0723  -1.8024   0.0000   0.0000   0.0000   1.4659
  -3.500   0.1180   0.01222   0.00424  -0.1078  0.6980  0.0884  -1.6375   0.0000   0.0000   0.0000   1.1837
  -3.250   0.1451   0.01199   0.00410  -0.1078  0.6956  0.1096  -1.4810   0.0000   0.0000   0.0000   1.0077
  -3.000   0.1725   0.01178   0.00395  -0.1079  0.6934  0.1353  -1.3441   0.0000   0.0000   0.0000   0.8869
  -2.750   0.1999   0.01158   0.00383  -0.1080  0.6915  0.1639  -1.2168   0.0000   0.0000   0.0000   0.7988
  -2.500   0.2274   0.01138   0.00370  -0.1080  0.6898  0.1971  -1.0924   0.0000   0.0000   0.0000   0.7319
  -2.250   0.2546   0.01117   0.00362  -0.1081  0.6874  0.2373  -0.9795   0.0000   0.0000   0.0000   0.6799
  -2.000   0.2815   0.01097   0.00357  -0.1081  0.6845  0.2813  -0.8723   0.0000   0.0000   0.0000   0.6380
  -1.750   0.3087   0.01080   0.00351  -0.1081  0.6820  0.3260  -0.7671   0.0000   0.0000   0.0000   0.6032
  -1.500   0.3362   0.01064   0.00346  -0.1082  0.6799  0.3700  -0.7720   0.0000   0.0000   0.0000   0.5739
  -1.250   0.3638   0.01052   0.00341  -0.1082  0.6781  0.4093  -0.7882   0.0000   0.0000   0.0000   0.5488
  -1.000   0.3907   0.01040   0.00343  -0.1082  0.6753  0.4488  -0.8037   0.0000   0.0000   0.0000   0.5276
  -0.750   0.4177   0.01029   0.00344  -0.1081  0.6727  0.4891  -0.8194   0.0000   0.0000   0.0000   0.5089
  -0.500   0.4448   0.01017   0.00342  -0.1080  0.6701  0.5326  -0.8353   0.0000   0.0000   0.0000   0.4924
  -0.250   0.4720   0.01005   0.00340  -0.1079  0.6678  0.5746  -0.8527   0.0000   0.0000   0.0000   0.4777
   0.000   0.4981   0.00995   0.00345  -0.1076  0.6646  0.6214  -0.8698   0.0000   0.0000   0.0000   0.4647
   0.250   0.5244   0.00985   0.00350  -0.1073  0.6617  0.6679  -0.8870   0.0000   0.0000   0.0000   0.4529
   0.500   0.5506   0.00974   0.00353  -0.1069  0.6592  0.7156  -0.9044   0.0000   0.0000   0.0000   0.4420
   0.750   0.5765   0.00963   0.00354  -0.1064  0.6570  0.7685  -0.9218   0.0000   0.0000   0.0000   0.4321
   1.000   0.6017   0.00952   0.00361  -0.1057  0.6534  0.8243  -0.9392   0.0000   0.0000   0.0000   0.4229
   1.250   0.6317   0.00940   0.00365  -0.1060  0.6500  0.8860  -0.9608   0.0000   0.0000   0.0000   0.4146
   1.500   0.6865   0.00936   0.00365  -0.1118  0.6473  0.9554  -0.9960   0.0000   0.0000   0.0000   0.4094
   1.750   0.7304   0.00942   0.00368  -0.1155  0.6443  0.9980  -1.0252   0.0000   0.0000   0.0000   0.4043
   2.000   0.7579   0.00948   0.00374  -0.1156  0.6405  1.0001  -1.0457   0.0000   0.0000   0.0000   0.3983
   2.250   0.7840   0.00954   0.00375  -0.1153  0.6371  1.0001  -1.0676   0.0000   0.0000   0.0000   0.3926
   2.500   0.8100   0.00961   0.00380  -0.1150  0.6334  1.0001  -1.0894   0.0000   0.0000   0.0000   0.3872
   2.750   0.8358   0.00969   0.00389  -0.1147  0.6292  1.0001  -1.1110   0.0000   0.0000   0.0000   0.3822
   3.000   0.8621   0.00975   0.00392  -0.1145  0.6256  1.0001  -1.1352   0.0000   0.0000   0.0000   0.3774
   3.250   0.8878   0.00983   0.00401  -0.1142  0.6208  1.0001  -1.1596   0.0000   0.0000   0.0000   0.3730
   3.500   0.9138   0.00991   0.00408  -0.1139  0.6161  1.0001  -1.1889   0.0000   0.0000   0.0000   0.3687
   3.750   0.9398   0.00999   0.00416  -0.1136  0.6112  1.0001  -1.2221   0.0000   0.0000   0.0000   0.3647
   4.000   0.9655   0.01007   0.00424  -0.1133  0.6055  1.0001  -1.2572   0.0000   0.0000   0.0000   0.3608
   4.250   0.9911   0.01015   0.00433  -0.1129  0.5992  1.0001  -1.2927   0.0000   0.0000   0.0000   0.3571
   4.500   1.0166   0.01023   0.00439  -0.1126  0.5924  1.0001  -1.3285   0.0000   0.0000   0.0000   0.3536
   4.750   1.0415   0.01034   0.00451  -0.1121  0.5843  1.0001  -1.3639   0.0000   0.0000   0.0000   0.3502
   5.000   1.0664   0.01045   0.00464  -0.1117  0.5764  1.0001  -1.3995   0.0000   0.0000   0.0000   0.3469
   5.250   1.0912   0.01058   0.00477  -0.1112  0.5686  1.0001  -1.4366   0.0000   0.0000   0.0000   0.3438
   5.750   1.1398   0.01088   0.00506  -0.1101  0.5508  1.0001  -1.5148   0.0000   0.0000   0.0000   0.3378
   6.000   1.1638   0.01105   0.00526  -0.1095  0.5418  1.0001  -1.5539   0.0000   0.0000   0.0000   0.3350
   6.250   1.1873   0.01124   0.00546  -0.1089  0.5322  1.0001  -1.5936   0.0000   0.0000   0.0000   0.3322
   6.500   1.2101   0.01145   0.00567  -0.1081  0.5216  1.0001  -1.6656   0.0000   0.0000   0.0000   0.3295
   6.750   1.2322   0.01170   0.00591  -0.1072  0.5104  1.0001  -1.7817   0.0000   0.0000   0.0000   0.3268
   7.000   1.2531   0.01198   0.00618  -0.1061  0.4974  1.0001  -1.8974   0.0000   0.0000   0.0000   0.3242
   7.250   1.2720   0.01233   0.00649  -0.1046  0.4810  1.0001  -2.0117   0.0000   0.0000   0.0000   0.3214
   7.500   1.2889   0.01275   0.00686  -0.1029  0.4635  1.0001  -2.1299   0.0000   0.0000   0.0000   0.3186
   7.750   1.3042   0.01322   0.00728  -0.1009  0.4443  1.0001  -2.2459   0.0000   0.0000   0.0000   0.3158
   8.000   1.3162   0.01378   0.00777  -0.0983  0.4243  1.0001  -2.3548   0.0000   0.0000   0.0000   0.3127
   8.250   1.3236   0.01444   0.00835  -0.0950  0.4028  1.0001  -2.4529   0.0000   0.0000   0.0000   0.3095
   8.500   1.3278   0.01533   0.00912  -0.0915  0.3783  1.0001  -2.5428   0.0000   0.0000   0.0000   0.3062
   8.750   1.3301   0.01644   0.01012  -0.0881  0.3508  1.0001  -2.6279   0.0000   0.0000   0.0000   0.3030
   9.000   1.3307   0.01783   0.01137  -0.0848  0.3229  1.0001  -2.7079   0.0000   0.0000   0.0000   0.3002
   9.250   1.3314   0.01942   0.01283  -0.0821  0.2949  1.0001  -2.7880   0.0000   0.0000   0.0000   0.2976
   9.500   1.3333   0.02109   0.01438  -0.0797  0.2681  1.0001  -2.8715   0.0000   0.0000   0.0000   0.2953
   9.750   1.3352   0.02283   0.01599  -0.0775  0.2440  1.0001  -2.9557   0.0000   0.0000   0.0000   0.2931
  10.000   1.3388   0.02450   0.01758  -0.0755  0.2225  1.0001  -3.0451   0.0000   0.0000   0.0000   0.2910
  10.250   1.3436   0.02611   0.01911  -0.0737  0.2039  1.0001  -3.1393   0.0000   0.0000   0.0000   0.2890
  10.500   1.3486   0.02772   0.02066  -0.0719  0.1872  1.0001  -3.2344   0.0000   0.0000   0.0000   0.2870
  10.750   1.3543   0.02930   0.02219  -0.0703  0.1717  1.0001  -3.3324   0.0000   0.0000   0.0000   0.2851
  11.000   1.3593   0.03095   0.02379  -0.0687  0.1558  1.0001  -3.4286   0.0000   0.0000   0.0000   0.2833
  11.250   1.3635   0.03268   0.02547  -0.0670  0.1385  1.0001  -3.5227   0.0000   0.0000   0.0000   0.2814
  11.500   1.3653   0.03461   0.02731  -0.0653  0.1196  1.0001  -3.6094   0.0000   0.0000   0.0000   0.2796
  11.750   1.3661   0.03667   0.02928  -0.0635  0.1001  1.0001  -3.6923   0.0000   0.0000   0.0000   0.2778
  12.000   1.3671   0.03877   0.03130  -0.0619  0.0843  1.0001  -3.7774   0.0000   0.0000   0.0000   0.2761
  12.250   1.3693   0.04084   0.03333  -0.0604  0.0725  1.0001  -3.8725   0.0000   0.0000   0.0000   0.2745
  12.500   1.3727   0.04286   0.03533  -0.0591  0.0634  1.0001  -3.9722   0.0000   0.0000   0.0000   0.2729
  12.750   1.3770   0.04485   0.03733  -0.0580  0.0558  1.0001  -4.0758   0.0000   0.0000   0.0000   0.2715
  13.000   1.3814   0.04687   0.03937  -0.0569  0.0493  1.0001  -4.1803   0.0000   0.0000   0.0000   0.2701
  13.250   1.3858   0.04894   0.04145  -0.0559  0.0434  1.0001  -4.2848   0.0000   0.0000   0.0000   0.2687
  13.500   1.3902   0.05104   0.04358  -0.0550  0.0380  1.0001  -4.3899   0.0000   0.0000   0.0000   0.2674
  13.750   1.3943   0.05323   0.04579  -0.0541  0.0337  1.0001  -4.4936   0.0000   0.0000   0.0000   0.2662
  14.000   1.3979   0.05550   0.04810  -0.0533  0.0305  1.0001  -4.5953   0.0000   0.0000   0.0000   0.2650
  14.250   1.4018   0.05778   0.05043  -0.0526  0.0280  1.0001  -4.6978   0.0000   0.0000   0.0000   0.2638
  14.500   1.4047   0.06021   0.05291  -0.0519  0.0262  1.0001  -4.7964   0.0000   0.0000   0.0000   0.2627
  14.750   1.4077   0.06267   0.05545  -0.0513  0.0247  1.0001  -4.8952   0.0000   0.0000   0.0000   0.2617
  15.000   1.4091   0.06535   0.05818  -0.0507  0.0235  1.0001  -4.9957   0.0000   0.0000   0.0000   0.2607
  15.250   1.4113   0.06799   0.06091  -0.0503  0.0226  1.0001  -5.0991   0.0000   0.0000   0.0000   0.2598
  15.500   1.4131   0.07071   0.06372  -0.0499  0.0217  1.0001  -5.2014   0.0000   0.0000   0.0000   0.2589
  15.750   1.4139   0.07360   0.06670  -0.0496  0.0210  1.0001  -5.2994   0.0000   0.0000   0.0000   0.2581
  16.000   1.4133   0.07670   0.06988  -0.0494  0.0204  1.0001  -5.3910   0.0000   0.0000   0.0000   0.2574
  16.250   1.4116   0.07998   0.07323  -0.0492  0.0199  1.0001  -5.4765   0.0000   0.0000   0.0000   0.2568
  16.500   1.4120   0.08305   0.07641  -0.0492  0.0193  1.0001  -5.5706   0.0000   0.0000   0.0000   0.2562
  16.750   1.4117   0.08626   0.07972  -0.0493  0.0188  1.0001  -5.6678   0.0000   0.0000   0.0000   0.2557
  17.000   1.4107   0.08958   0.08314  -0.0494  0.0183  1.0001  -5.7638   0.0000   0.0000   0.0000   0.2553
  17.250   1.4090   0.09303   0.08668  -0.0497  0.0179  1.0001  -5.8562   0.0000   0.0000   0.0000   0.2549
  17.500   1.4065   0.09663   0.09037  -0.0501  0.0175  1.0001  -5.9438   0.0000   0.0000   0.0000   0.2547
  17.750   1.4030   0.10043   0.09425  -0.0506  0.0172  1.0001  -6.0239   0.0000   0.0000   0.0000   0.2545
  18.000   1.3986   0.10440   0.09831  -0.0512  0.0170  1.0001  -6.0963   0.0000   0.0000   0.0000   0.2545
  18.250   1.3958   0.10816   0.10216  -0.0519  0.0167  1.0001  -6.1757   0.0000   0.0000   0.0000   0.2545
  18.500   1.3938   0.11183   0.10595  -0.0527  0.0165  1.0001  -6.2582   0.0000   0.0000   0.0000   0.2545
  18.750   1.3917   0.11555   0.10978  -0.0536  0.0163  1.0001  -6.3438   0.0000   0.0000   0.0000   0.2546
  19.000   1.3896   0.11930   0.11362  -0.0546  0.0160  1.0001  -6.4494   0.0000   0.0000   0.0000   0.2548
  19.250   1.3877   0.12305   0.11747  -0.0557  0.0158  1.0001  -6.5544   0.0000   0.0000   0.0000   0.2550
  19.500   1.3859   0.12679   0.12130  -0.0569  0.0155  1.0001  -6.6598   0.0000   0.0000   0.0000   0.2553
  19.750   1.3843   0.13051   0.12512  -0.0582  0.0153  1.0001  -6.7663   0.0000   0.0000   0.0000   0.2556
  20.000   1.3830   0.13424   0.12892  -0.0597  0.0150  1.0001  -6.8735   0.0000   0.0000   0.0000   0.2561


