xflr5 v6.61

 Calculated polar for: QX0026 v32

 1 1 Reynolds number fixed          Mach number fixed         

 xtrf =   1.000 (top)        1.000 (bottom)
 Mach =   0.000     Re =     0.660 e 6     Ncrit =   5.000

  alpha     CL        CD       CDp       Cm    Top Xtr Bot Xtr   Cpmin    Chinge    XCp    
 ------- -------- --------- --------- -------- ------- ------- -------- --------- ---------
 -10.000  -0.5790   0.01805   0.01199  -0.1070  0.7251  0.0096  -8.0578   0.0000   0.0000   0.0000   0.0485
  -9.750  -0.5546   0.01749   0.01135  -0.1069  0.7231  0.0100  -7.7444   0.0000   0.0000   0.0000   0.0406
  -9.500  -0.5299   0.01696   0.01072  -0.1067  0.7213  0.0103  -7.4362   0.0000   0.0000   0.0000   0.0319
  -9.250  -0.5048   0.01644   0.01011  -0.1066  0.7191  0.0107  -7.1322   0.0000   0.0000   0.0000   0.0220
  -9.000  -0.4793   0.01594   0.00953  -0.1065  0.7168  0.0111  -6.8319   0.0000   0.0000   0.0000   0.0109
  -8.750  -0.4539   0.01545   0.00896  -0.1064  0.7146  0.0115  -6.5553   0.0000   0.0000   0.0000  -0.0014
  -8.500  -0.4283   0.01497   0.00842  -0.1063  0.7127  0.0121  -6.2822   0.0000   0.0000   0.0000  -0.0154
  -8.250  -0.4022   0.01459   0.00797  -0.1063  0.7111  0.0127  -6.0066   0.0000   0.0000   0.0000  -0.0317
  -8.000  -0.3758   0.01422   0.00754  -0.1062  0.7093  0.0133  -5.7367   0.0000   0.0000   0.0000  -0.0505
  -7.750  -0.3491   0.01387   0.00713  -0.1062  0.7073  0.0140  -5.4715   0.0000   0.0000   0.0000  -0.0726
  -7.500  -0.3225   0.01349   0.00672  -0.1062  0.7051  0.0148  -5.2092   0.0000   0.0000   0.0000  -0.0981
  -7.250  -0.2956   0.01319   0.00638  -0.1062  0.7031  0.0158  -4.9445   0.0000   0.0000   0.0000  -0.1289
  -7.000  -0.2685   0.01292   0.00605  -0.1062  0.7014  0.0168  -4.6874   0.0000   0.0000   0.0000  -0.1661
  -6.750  -0.2415   0.01263   0.00570  -0.1062  0.6998  0.0178  -4.4378   0.0000   0.0000   0.0000  -0.2115
  -6.500  -0.2142   0.01234   0.00540  -0.1063  0.6980  0.0190  -4.1890   0.0000   0.0000   0.0000  -0.2692
  -6.250  -0.1867   0.01209   0.00512  -0.1063  0.6961  0.0202  -3.9456   0.0000   0.0000   0.0000  -0.3446
  -6.000  -0.1593   0.01183   0.00483  -0.1064  0.6941  0.0217  -3.7074   0.0000   0.0000   0.0000  -0.4458
  -5.750  -0.1317   0.01161   0.00458  -0.1064  0.6922  0.0234  -3.4722   0.0000   0.0000   0.0000  -0.5898
  -5.500  -0.1042   0.01139   0.00432  -0.1065  0.6903  0.0251  -3.2445   0.0000   0.0000   0.0000  -0.8104
  -5.250  -0.0766   0.01118   0.00408  -0.1065  0.6884  0.0273  -3.0204   0.0000   0.0000   0.0000  -1.1903
  -5.000  -0.0487   0.01097   0.00386  -0.1066  0.6861  0.0296  -2.8022   0.0000   0.0000   0.0000  -2.0098
  -4.750  -0.0209   0.01077   0.00365  -0.1067  0.6840  0.0323  -2.5889   0.0000   0.0000   0.0000  -5.0203
  -4.500   0.0070   0.01058   0.00346  -0.1068  0.6821  0.0356  -2.3812   0.0000   0.0000   0.0000  15.9844
  -4.250   0.0349   0.01041   0.00327  -0.1069  0.6803  0.0398  -2.1790   0.0000   0.0000   0.0000   3.3971
  -4.000   0.0628   0.01025   0.00310  -0.1070  0.6786  0.0449  -1.9922   0.0000   0.0000   0.0000   1.9963
  -3.750   0.0908   0.01008   0.00294  -0.1071  0.6766  0.0517  -1.8174   0.0000   0.0000   0.0000   1.4565
  -3.500   0.1188   0.00991   0.00281  -0.1072  0.6745  0.0614  -1.6472   0.0000   0.0000   0.0000   1.1715
  -3.250   0.1468   0.00973   0.00268  -0.1073  0.6725  0.0739  -1.4852   0.0000   0.0000   0.0000   0.9955
  -3.000   0.1746   0.00956   0.00255  -0.1075  0.6703  0.0909  -1.3476   0.0000   0.0000   0.0000   0.8760
  -2.750   0.2024   0.00939   0.00243  -0.1075  0.6682  0.1125  -1.2184   0.0000   0.0000   0.0000   0.7896
  -2.500   0.2303   0.00923   0.00234  -0.1077  0.6659  0.1359  -1.0923   0.0000   0.0000   0.0000   0.7239
  -2.250   0.2582   0.00907   0.00226  -0.1078  0.6634  0.1606  -0.9766   0.0000   0.0000   0.0000   0.6723
  -2.000   0.2861   0.00891   0.00219  -0.1079  0.6611  0.1889  -0.8671   0.0000   0.0000   0.0000   0.6309
  -1.750   0.3139   0.00874   0.00212  -0.1081  0.6589  0.2248  -0.7629   0.0000   0.0000   0.0000   0.5969
  -1.500   0.3415   0.00858   0.00206  -0.1081  0.6569  0.2658  -0.7790   0.0000   0.0000   0.0000   0.5685
  -1.250   0.3693   0.00843   0.00204  -0.1083  0.6542  0.3054  -0.7952   0.0000   0.0000   0.0000   0.5443
  -1.000   0.3971   0.00828   0.00202  -0.1084  0.6514  0.3458  -0.8114   0.0000   0.0000   0.0000   0.5234
  -0.750   0.4250   0.00818   0.00199  -0.1085  0.6487  0.3799  -0.8278   0.0000   0.0000   0.0000   0.5052
  -0.500   0.4528   0.00809   0.00197  -0.1086  0.6465  0.4153  -0.8442   0.0000   0.0000   0.0000   0.4892
  -0.250   0.4807   0.00799   0.00198  -0.1087  0.6438  0.4485  -0.8609   0.0000   0.0000   0.0000   0.4750
   0.000   0.5086   0.00790   0.00198  -0.1088  0.6409  0.4840  -0.8790   0.0000   0.0000   0.0000   0.4624
   0.250   0.5363   0.00783   0.00199  -0.1088  0.6380  0.5179  -0.8972   0.0000   0.0000   0.0000   0.4511
   0.750   0.5911   0.00765   0.00204  -0.1088  0.6321  0.6005  -0.9333   0.0000   0.0000   0.0000   0.4315
   1.000   0.6184   0.00758   0.00208  -0.1088  0.6288  0.6412  -0.9514   0.0000   0.0000   0.0000   0.4230
   1.250   0.6452   0.00749   0.00211  -0.1086  0.6257  0.6886  -0.9713   0.0000   0.0000   0.0000   0.4150
   1.500   0.6715   0.00740   0.00217  -0.1083  0.6223  0.7390  -0.9909   0.0000   0.0000   0.0000   0.4077
   1.750   0.6977   0.00731   0.00223  -0.1080  0.6184  0.7871  -1.0104   0.0000   0.0000   0.0000   0.4008
   2.000   0.7235   0.00722   0.00228  -0.1075  0.6148  0.8351  -1.0299   0.0000   0.0000   0.0000   0.3943
   2.250   0.7513   0.00710   0.00234  -0.1074  0.6108  0.8990  -1.0520   0.0000   0.0000   0.0000   0.3884
   2.500   0.8078   0.00710   0.00240  -0.1138  0.6062  0.9691  -1.0915   0.0000   0.0000   0.0000   0.3861
   2.750   0.8485   0.00718   0.00246  -0.1168  0.6015  1.0000  -1.1220   0.0000   0.0000   0.0000   0.3826
   3.000   0.8747   0.00724   0.00252  -0.1166  0.5961  1.0001  -1.1459   0.0000   0.0000   0.0000   0.3779
   3.250   0.9004   0.00733   0.00257  -0.1162  0.5906  1.0001  -1.1705   0.0000   0.0000   0.0000   0.3734
   3.500   0.9262   0.00741   0.00264  -0.1159  0.5834  1.0001  -1.1998   0.0000   0.0000   0.0000   0.3691
   3.750   0.9518   0.00750   0.00272  -0.1156  0.5753  1.0001  -1.2340   0.0000   0.0000   0.0000   0.3651
   4.000   0.9773   0.00761   0.00280  -0.1152  0.5671  1.0001  -1.2694   0.0000   0.0000   0.0000   0.3612
   4.250   1.0024   0.00773   0.00290  -0.1147  0.5584  1.0001  -1.3047   0.0000   0.0000   0.0000   0.3575
   4.500   1.0273   0.00788   0.00300  -0.1143  0.5490  1.0001  -1.3400   0.0000   0.0000   0.0000   0.3540
   4.750   1.0523   0.00802   0.00312  -0.1138  0.5392  1.0001  -1.3756   0.0000   0.0000   0.0000   0.3506
   5.000   1.0773   0.00816   0.00326  -0.1134  0.5297  1.0001  -1.4114   0.0000   0.0000   0.0000   0.3474
   5.250   1.1020   0.00833   0.00341  -0.1130  0.5201  1.0001  -1.4495   0.0000   0.0000   0.0000   0.3443
   5.500   1.1261   0.00852   0.00357  -0.1124  0.5096  1.0001  -1.4884   0.0000   0.0000   0.0000   0.3413
   5.750   1.1498   0.00873   0.00376  -0.1118  0.4986  1.0001  -1.5273   0.0000   0.0000   0.0000   0.3384
   6.000   1.1731   0.00896   0.00396  -0.1111  0.4864  1.0001  -1.5660   0.0000   0.0000   0.0000   0.3355
   6.250   1.1947   0.00926   0.00420  -0.1101  0.4707  1.0001  -1.6047   0.0000   0.0000   0.0000   0.3327
   6.500   1.2149   0.00962   0.00449  -0.1089  0.4519  1.0001  -1.6863   0.0000   0.0000   0.0000   0.3298
   6.750   1.2350   0.00998   0.00480  -0.1076  0.4337  1.0001  -1.7986   0.0000   0.0000   0.0000   0.3270
   7.000   1.2541   0.01038   0.00513  -0.1063  0.4167  1.0001  -1.9108   0.0000   0.0000   0.0000   0.3242
   7.250   1.2695   0.01093   0.00556  -0.1043  0.3906  1.0001  -2.0239   0.0000   0.0000   0.0000   0.3213
   7.500   1.2812   0.01161   0.00609  -0.1017  0.3602  1.0001  -2.1289   0.0000   0.0000   0.0000   0.3182
   7.750   1.2880   0.01236   0.00669  -0.0983  0.3298  1.0001  -2.2226   0.0000   0.0000   0.0000   0.3147
   8.000   1.2927   0.01324   0.00741  -0.0947  0.2991  1.0001  -2.3117   0.0000   0.0000   0.0000   0.3113
   8.250   1.2985   0.01419   0.00822  -0.0915  0.2717  1.0001  -2.4043   0.0000   0.0000   0.0000   0.3081
   8.500   1.3051   0.01523   0.00914  -0.0888  0.2474  1.0001  -2.4997   0.0000   0.0000   0.0000   0.3053
   8.750   1.3112   0.01642   0.01021  -0.0864  0.2234  1.0001  -2.5943   0.0000   0.0000   0.0000   0.3027
   9.000   1.3185   0.01767   0.01136  -0.0843  0.2017  1.0001  -2.6926   0.0000   0.0000   0.0000   0.3003
   9.250   1.3280   0.01885   0.01248  -0.0826  0.1854  1.0001  -2.7986   0.0000   0.0000   0.0000   0.2982
   9.500   1.3380   0.02004   0.01362  -0.0811  0.1703  1.0001  -2.9073   0.0000   0.0000   0.0000   0.2961
   9.750   1.3468   0.02134   0.01484  -0.0795  0.1544  1.0001  -3.0135   0.0000   0.0000   0.0000   0.2941
  10.000   1.3552   0.02268   0.01613  -0.0779  0.1380  1.0001  -3.1191   0.0000   0.0000   0.0000   0.2921
  10.250   1.3605   0.02424   0.01759  -0.0761  0.1189  1.0001  -3.2162   0.0000   0.0000   0.0000   0.2901
  10.500   1.3636   0.02598   0.01922  -0.0741  0.0978  1.0001  -3.3065   0.0000   0.0000   0.0000   0.2881
  10.750   1.3668   0.02774   0.02089  -0.0722  0.0802  1.0001  -3.3974   0.0000   0.0000   0.0000   0.2861
  11.000   1.3719   0.02937   0.02247  -0.0705  0.0683  1.0001  -3.4953   0.0000   0.0000   0.0000   0.2842
  11.250   1.3787   0.03089   0.02397  -0.0690  0.0593  1.0001  -3.5998   0.0000   0.0000   0.0000   0.2824
  11.500   1.3859   0.03239   0.02546  -0.0676  0.0527  1.0001  -3.7064   0.0000   0.0000   0.0000   0.2807
  11.750   1.3940   0.03384   0.02691  -0.0663  0.0470  1.0001  -3.8168   0.0000   0.0000   0.0000   0.2790
  12.000   1.4018   0.03534   0.02842  -0.0650  0.0410  1.0001  -3.9350   0.0000   0.0000   0.0000   0.2773
  12.250   1.4086   0.03696   0.03003  -0.0638  0.0350  1.0001  -4.0512   0.0000   0.0000   0.0000   0.2757
  12.500   1.4154   0.03862   0.03169  -0.0626  0.0302  1.0001  -4.1680   0.0000   0.0000   0.0000   0.2742
  12.750   1.4223   0.04031   0.03339  -0.0614  0.0266  1.0001  -4.2861   0.0000   0.0000   0.0000   0.2727
  13.000   1.4294   0.04202   0.03512  -0.0604  0.0240  1.0001  -4.4058   0.0000   0.0000   0.0000   0.2712
  13.250   1.4368   0.04373   0.03687  -0.0594  0.0221  1.0001  -4.5270   0.0000   0.0000   0.0000   0.2698
  13.500   1.4436   0.04553   0.03871  -0.0585  0.0205  1.0001  -4.6470   0.0000   0.0000   0.0000   0.2685
  13.750   1.4508   0.04732   0.04056  -0.0576  0.0192  1.0001  -4.7688   0.0000   0.0000   0.0000   0.2672
  14.000   1.4576   0.04917   0.04245  -0.0568  0.0182  1.0001  -4.8903   0.0000   0.0000   0.0000   0.2659
  14.250   1.4635   0.05114   0.04447  -0.0559  0.0173  1.0001  -5.0088   0.0000   0.0000   0.0000   0.2646
  14.500   1.4694   0.05315   0.04653  -0.0552  0.0166  1.0001  -5.1277   0.0000   0.0000   0.0000   0.2634
  14.750   1.4756   0.05516   0.04862  -0.0545  0.0159  1.0001  -5.2568   0.0000   0.0000   0.0000   0.2623
  15.000   1.4808   0.05728   0.05079  -0.0539  0.0153  1.0001  -5.3848   0.0000   0.0000   0.0000   0.2612
  15.250   1.4853   0.05952   0.05308  -0.0532  0.0148  1.0001  -5.5103   0.0000   0.0000   0.0000   0.2601
  15.500   1.4886   0.06192   0.05554  -0.0527  0.0144  1.0001  -5.6305   0.0000   0.0000   0.0000   0.2591
  15.750   1.4914   0.06443   0.05811  -0.0521  0.0140  1.0001  -5.7472   0.0000   0.0000   0.0000   0.2581
  16.000   1.4949   0.06686   0.06063  -0.0517  0.0138  1.0001  -5.8682   0.0000   0.0000   0.0000   0.2572
  16.250   1.4977   0.06942   0.06327  -0.0513  0.0135  1.0001  -5.9898   0.0000   0.0000   0.0000   0.2563
  16.500   1.4998   0.07209   0.06602  -0.0510  0.0133  1.0001  -6.1140   0.0000   0.0000   0.0000   0.2554
  16.750   1.5013   0.07488   0.06888  -0.0507  0.0131  1.0001  -6.2352   0.0000   0.0000   0.0000   0.2547
  17.000   1.5020   0.07778   0.07187  -0.0506  0.0128  1.0001  -6.3525   0.0000   0.0000   0.0000   0.2539
  17.250   1.5020   0.08081   0.07499  -0.0505  0.0126  1.0001  -6.4659   0.0000   0.0000   0.0000   0.2533
  17.500   1.5013   0.08399   0.07824  -0.0505  0.0124  1.0001  -6.5751   0.0000   0.0000   0.0000   0.2527
  17.750   1.4998   0.08729   0.08162  -0.0505  0.0122  1.0001  -6.6803   0.0000   0.0000   0.0000   0.2522
  18.000   1.4975   0.09075   0.08517  -0.0507  0.0120  1.0001  -6.7797   0.0000   0.0000   0.0000   0.2518
  18.250   1.4939   0.09441   0.08890  -0.0510  0.0118  1.0001  -6.8929   0.0000   0.0000   0.0000   0.2514
  18.500   1.4889   0.09832   0.09290  -0.0515  0.0116  1.0001  -6.9966   0.0000   0.0000   0.0000   0.2512
  18.750   1.4844   0.10223   0.09690  -0.0521  0.0115  1.0001  -7.1023   0.0000   0.0000   0.0000   0.2511
  19.000   1.4818   0.10589   0.10066  -0.0527  0.0114  1.0001  -7.2222   0.0000   0.0000   0.0000   0.2510
  19.250   1.4784   0.10968   0.10455  -0.0535  0.0113  1.0001  -7.3349   0.0000   0.0000   0.0000   0.2509
  19.500   1.4747   0.11357   0.10853  -0.0544  0.0112  1.0001  -7.4435   0.0000   0.0000   0.0000   0.2510
  19.750   1.4709   0.11752   0.11258  -0.0554  0.0111  1.0001  -7.5492   0.0000   0.0000   0.0000   0.2511
  20.000   1.4669   0.12153   0.11668  -0.0566  0.0110  1.0001  -7.6524   0.0000   0.0000   0.0000   0.2514


