xflr5 v6.61

 Calculated polar for: QX0026 v32

 1 1 Reynolds number fixed          Mach number fixed         

 xtrf =   1.000 (top)        1.000 (bottom)
 Mach =   0.000     Re =     0.160 e 6     Ncrit =   5.000

  alpha     CL        CD       CDp       Cm    Top Xtr Bot Xtr   Cpmin    Chinge    XCp    
 ------- -------- --------- --------- -------- ------- ------- -------- --------- ---------
 -10.000  -0.2644   0.08231   0.07760  -0.0802  0.8009  0.0219  -3.1596   0.0000   0.0000   0.0000  -0.0820
  -9.750  -0.3935   0.04696   0.04185  -0.1108  0.7969  0.0203  -5.1518   0.0000   0.0000   0.0000  -0.0525
  -9.250  -0.4168   0.03621   0.02992  -0.1144  0.7899  0.0208  -5.4979   0.0000   0.0000   0.0000  -0.0435
  -9.000  -0.4047   0.03393   0.02735  -0.1143  0.7868  0.0212  -5.3898   0.0000   0.0000   0.0000  -0.0514
  -8.750  -0.3878   0.03238   0.02560  -0.1141  0.7843  0.0217  -5.2179   0.0000   0.0000   0.0000  -0.0634
  -8.500  -0.3704   0.03069   0.02366  -0.1139  0.7814  0.0224  -5.0784   0.0000   0.0000   0.0000  -0.0769
  -8.250  -0.3522   0.02892   0.02157  -0.1136  0.7784  0.0234  -4.9658   0.0000   0.0000   0.0000  -0.0921
  -8.000  -0.3328   0.02720   0.01942  -0.1131  0.7757  0.0248  -4.8575   0.0000   0.0000   0.0000  -0.1100
  -7.750  -0.3100   0.02644   0.01859  -0.1130  0.7735  0.0260  -4.6397   0.0000   0.0000   0.0000  -0.1350
  -7.500  -0.2876   0.02538   0.01732  -0.1127  0.7704  0.0275  -4.4730   0.0000   0.0000   0.0000  -0.1631
  -7.250  -0.2649   0.02413   0.01580  -0.1123  0.7676  0.0289  -4.3321   0.0000   0.0000   0.0000  -0.1960
  -7.000  -0.2411   0.02338   0.01501  -0.1121  0.7653  0.0302  -4.1279   0.0000   0.0000   0.0000  -0.2382
  -6.750  -0.2166   0.02263   0.01404  -0.1118  0.7633  0.0325  -3.9436   0.0000   0.0000   0.0000  -0.2912
  -6.500  -0.1925   0.02193   0.01331  -0.1116  0.7605  0.0344  -3.7506   0.0000   0.0000   0.0000  -0.3564
  -6.250  -0.1681   0.02125   0.01253  -0.1113  0.7577  0.0365  -3.5679   0.0000   0.0000   0.0000  -0.4416
  -6.000  -0.1433   0.02062   0.01182  -0.1111  0.7553  0.0390  -3.3799   0.0000   0.0000   0.0000  -0.5575
  -5.750  -0.1179   0.02009   0.01117  -0.1109  0.7534  0.0423  -3.1899   0.0000   0.0000   0.0000  -0.7281
  -5.500  -0.0931   0.01957   0.01064  -0.1106  0.7510  0.0452  -3.0011   0.0000   0.0000   0.0000  -0.9837
  -5.250  -0.0682   0.01911   0.01013  -0.1104  0.7482  0.0489  -2.8185   0.0000   0.0000   0.0000  -1.4268
  -5.000  -0.0427   0.01870   0.00966  -0.1102  0.7456  0.0538  -2.6329   0.0000   0.0000   0.0000  -2.4174
  -4.750  -0.0169   0.01829   0.00920  -0.1100  0.7435  0.0594  -2.4491   0.0000   0.0000   0.0000  -6.4828
  -4.500   0.0090   0.01790   0.00879  -0.1098  0.7414  0.0667  -2.2668   0.0000   0.0000   0.0000  12.8192
  -4.250   0.0341   0.01759   0.00849  -0.1096  0.7382  0.0762  -2.1063   0.0000   0.0000   0.0000   3.5580
  -4.000   0.0598   0.01725   0.00818  -0.1094  0.7355  0.0896  -1.9472   0.0000   0.0000   0.0000   2.1282
  -3.750   0.0861   0.01691   0.00787  -0.1093  0.7333  0.1088  -1.7885   0.0000   0.0000   0.0000   1.5518
  -3.500   0.1127   0.01659   0.00761  -0.1093  0.7316  0.1358  -1.6306   0.0000   0.0000   0.0000   1.2420
  -3.250   0.1377   0.01638   0.00752  -0.1091  0.7284  0.1686  -1.4858   0.0000   0.0000   0.0000   1.0593
  -3.000   0.1633   0.01613   0.00740  -0.1089  0.7257  0.2085  -1.3522   0.0000   0.0000   0.0000   0.9303
  -2.750   0.1894   0.01588   0.00728  -0.1088  0.7234  0.2545  -1.2295   0.0000   0.0000   0.0000   0.8349
  -2.500   0.2160   0.01565   0.00717  -0.1088  0.7216  0.3052  -1.1081   0.0000   0.0000   0.0000   0.7616
  -2.250   0.2412   0.01552   0.00719  -0.1085  0.7188  0.3557  -0.9988   0.0000   0.0000   0.0000   0.7063
  -2.000   0.2664   0.01542   0.00723  -0.1082  0.7157  0.4034  -0.8955   0.0000   0.0000   0.0000   0.6612
  -1.750   0.2923   0.01526   0.00719  -0.1079  0.7131  0.4497  -0.7928   0.0000   0.0000   0.0000   0.6230
  -1.500   0.3189   0.01509   0.00711  -0.1076  0.7110  0.4977  -0.7513   0.0000   0.0000   0.0000   0.5904
  -1.250   0.3434   0.01502   0.00721  -0.1071  0.7078  0.5459  -0.7651   0.0000   0.0000   0.0000   0.5639
  -1.000   0.3679   0.01496   0.00729  -0.1064  0.7045  0.5954  -0.7790   0.0000   0.0000   0.0000   0.5407
  -0.750   0.3935   0.01485   0.00731  -0.1059  0.7021  0.6466  -0.7939   0.0000   0.0000   0.0000   0.5198
  -0.500   0.4198   0.01471   0.00728  -0.1053  0.7002  0.7002  -0.8112   0.0000   0.0000   0.0000   0.5010
  -0.250   0.4440   0.01472   0.00745  -0.1045  0.6968  0.7543  -0.8267   0.0000   0.0000   0.0000   0.4850
   0.000   0.4704   0.01468   0.00753  -0.1040  0.6935  0.8141  -0.8436   0.0000   0.0000   0.0000   0.4703
   0.250   0.5063   0.01455   0.00749  -0.1053  0.6910  0.8836  -0.8661   0.0000   0.0000   0.0000   0.4566
   0.500   0.5610   0.01444   0.00735  -0.1108  0.6892  0.9555  -0.8986   0.0000   0.0000   0.0000   0.4456
   0.750   0.6003   0.01463   0.00752  -0.1136  0.6851  1.0001  -0.9228   0.0000   0.0000   0.0000   0.4371
   1.000   0.6247   0.01476   0.00757  -0.1132  0.6819  1.0001  -0.9407   0.0000   0.0000   0.0000   0.4286
   1.250   0.6511   0.01481   0.00754  -0.1130  0.6795  1.0001  -0.9601   0.0000   0.0000   0.0000   0.4206
   1.500   0.6753   0.01496   0.00766  -0.1125  0.6761  1.0001  -0.9779   0.0000   0.0000   0.0000   0.4133
   1.750   0.6990   0.01513   0.00779  -0.1119  0.6719  1.0001  -0.9954   0.0000   0.0000   0.0000   0.4064
   2.000   0.7260   0.01516   0.00776  -0.1117  0.6690  1.0001  -1.0169   0.0000   0.0000   0.0000   0.4000
   2.250   0.7507   0.01531   0.00789  -0.1113  0.6654  1.0001  -1.0374   0.0000   0.0000   0.0000   0.3940
   2.500   0.7745   0.01550   0.00808  -0.1107  0.6612  1.0001  -1.0572   0.0000   0.0000   0.0000   0.3884
   2.750   0.8017   0.01554   0.00808  -0.1106  0.6582  1.0001  -1.0798   0.0000   0.0000   0.0000   0.3831
   3.000   0.8258   0.01570   0.00825  -0.1101  0.6539  1.0001  -1.1027   0.0000   0.0000   0.0000   0.3781
   3.250   0.8507   0.01582   0.00837  -0.1097  0.6495  1.0001  -1.1263   0.0000   0.0000   0.0000   0.3734
   3.500   0.8790   0.01580   0.00831  -0.1097  0.6466  1.0001  -1.1566   0.0000   0.0000   0.0000   0.3690
   3.750   0.9009   0.01607   0.00864  -0.1089  0.6412  1.0001  -1.1843   0.0000   0.0000   0.0000   0.3647
   4.000   0.9277   0.01609   0.00865  -0.1087  0.6372  1.0001  -1.2193   0.0000   0.0000   0.0000   0.3607
   4.250   0.9519   0.01623   0.00881  -0.1082  0.6322  1.0001  -1.2528   0.0000   0.0000   0.0000   0.3569
   4.500   0.9768   0.01632   0.00894  -0.1077  0.6272  1.0001  -1.2876   0.0000   0.0000   0.0000   0.3532
   4.750   1.0018   0.01641   0.00905  -0.1073  0.6221  1.0001  -1.3227   0.0000   0.0000   0.0000   0.3497
   5.000   1.0260   0.01650   0.00917  -0.1067  0.6161  1.0001  -1.3573   0.0000   0.0000   0.0000   0.3463
   5.250   1.0492   0.01662   0.00934  -0.1059  0.6094  1.0001  -1.3914   0.0000   0.0000   0.0000   0.3429
   5.500   1.0761   0.01655   0.00927  -0.1057  0.6035  1.0001  -1.4312   0.0000   0.0000   0.0000   0.3398
   5.750   1.0974   0.01672   0.00950  -0.1046  0.5951  1.0001  -1.4672   0.0000   0.0000   0.0000   0.3366
   6.000   1.1201   0.01685   0.00967  -0.1038  0.5873  1.0001  -1.5048   0.0000   0.0000   0.0000   0.3336
   6.250   1.1446   0.01691   0.00977  -0.1032  0.5801  1.0001  -1.5444   0.0000   0.0000   0.0000   0.3308
   6.500   1.1667   0.01707   0.00998  -0.1023  0.5718  1.0001  -1.5828   0.0000   0.0000   0.0000   0.3280
   6.750   1.1878   0.01726   0.01023  -0.1012  0.5626  1.0001  -1.6587   0.0000   0.0000   0.0000   0.3252
   7.000   1.2093   0.01745   0.01047  -0.1002  0.5535  1.0001  -1.7726   0.0000   0.0000   0.0000   0.3225
   7.250   1.2304   0.01765   0.01072  -0.0992  0.5442  1.0001  -1.8882   0.0000   0.0000   0.0000   0.3198
   7.500   1.2507   0.01789   0.01100  -0.0980  0.5342  1.0001  -2.0036   0.0000   0.0000   0.0000   0.3172
   7.750   1.2700   0.01815   0.01131  -0.0967  0.5235  1.0001  -2.1196   0.0000   0.0000   0.0000   0.3146
   8.000   1.2886   0.01843   0.01163  -0.0952  0.5120  1.0001  -2.2430   0.0000   0.0000   0.0000   0.3120
   8.250   1.3046   0.01876   0.01198  -0.0933  0.4994  1.0001  -2.3618   0.0000   0.0000   0.0000   0.3092
   8.500   1.3189   0.01916   0.01236  -0.0912  0.4848  1.0001  -2.4777   0.0000   0.0000   0.0000   0.3064
   8.750   1.3305   0.01969   0.01289  -0.0887  0.4678  1.0001  -2.5878   0.0000   0.0000   0.0000   0.3036
   9.000   1.3402   0.02035   0.01350  -0.0862  0.4486  1.0001  -2.6940   0.0000   0.0000   0.0000   0.3008
   9.250   1.3472   0.02121   0.01429  -0.0834  0.4271  1.0001  -2.7934   0.0000   0.0000   0.0000   0.2980
   9.500   1.3525   0.02227   0.01527  -0.0808  0.4047  1.0001  -2.8881   0.0000   0.0000   0.0000   0.2953
   9.750   1.3567   0.02349   0.01642  -0.0782  0.3824  1.0001  -2.9800   0.0000   0.0000   0.0000   0.2928
  10.000   1.3600   0.02488   0.01774  -0.0757  0.3600  1.0001  -3.0693   0.0000   0.0000   0.0000   0.2904
  10.250   1.3619   0.02644   0.01921  -0.0733  0.3377  1.0001  -3.1548   0.0000   0.0000   0.0000   0.2881
  10.500   1.3623   0.02818   0.02085  -0.0710  0.3143  1.0001  -3.2355   0.0000   0.0000   0.0000   0.2859
  10.750   1.3617   0.03005   0.02262  -0.0687  0.2912  1.0001  -3.3135   0.0000   0.0000   0.0000   0.2837
  11.000   1.3611   0.03199   0.02447  -0.0665  0.2686  1.0001  -3.3912   0.0000   0.0000   0.0000   0.2817
  11.250   1.3607   0.03398   0.02638  -0.0644  0.2481  1.0001  -3.4694   0.0000   0.0000   0.0000   0.2797
  11.500   1.3602   0.03604   0.02837  -0.0625  0.2282  1.0001  -3.5470   0.0000   0.0000   0.0000   0.2778
  11.750   1.3595   0.03815   0.03041  -0.0607  0.2091  1.0001  -3.6242   0.0000   0.0000   0.0000   0.2760
  12.000   1.3588   0.04034   0.03253  -0.0589  0.1904  1.0001  -3.7007   0.0000   0.0000   0.0000   0.2742
  12.250   1.3589   0.04254   0.03468  -0.0574  0.1716  1.0001  -3.7850   0.0000   0.0000   0.0000   0.2726
  12.500   1.3587   0.04483   0.03692  -0.0559  0.1530  1.0001  -3.8695   0.0000   0.0000   0.0000   0.2710
  12.750   1.3579   0.04727   0.03931  -0.0546  0.1334  1.0001  -3.9510   0.0000   0.0000   0.0000   0.2696
  13.000   1.3556   0.04991   0.04186  -0.0533  0.1134  1.0001  -4.0269   0.0000   0.0000   0.0000   0.2681
  13.250   1.3527   0.05270   0.04456  -0.0521  0.0959  1.0001  -4.0995   0.0000   0.0000   0.0000   0.2668
  13.500   1.3505   0.05550   0.04731  -0.0510  0.0823  1.0001  -4.1734   0.0000   0.0000   0.0000   0.2656
  13.750   1.3489   0.05831   0.05010  -0.0500  0.0722  1.0001  -4.2489   0.0000   0.0000   0.0000   0.2644
  14.000   1.3480   0.06111   0.05292  -0.0492  0.0643  1.0001  -4.3263   0.0000   0.0000   0.0000   0.2633
  14.250   1.3471   0.06399   0.05582  -0.0485  0.0581  1.0001  -4.4022   0.0000   0.0000   0.0000   0.2623
  14.500   1.3462   0.06693   0.05882  -0.0479  0.0529  1.0001  -4.4769   0.0000   0.0000   0.0000   0.2613
  14.750   1.3455   0.06992   0.06188  -0.0474  0.0485  1.0001  -4.5510   0.0000   0.0000   0.0000   0.2605
  15.000   1.3447   0.07298   0.06503  -0.0470  0.0448  1.0001  -4.6232   0.0000   0.0000   0.0000   0.2597
  15.250   1.3431   0.07619   0.06831  -0.0467  0.0418  1.0001  -4.6974   0.0000   0.0000   0.0000   0.2590
  15.500   1.3412   0.07951   0.07171  -0.0466  0.0392  1.0001  -4.7723   0.0000   0.0000   0.0000   0.2584
  15.750   1.3395   0.08286   0.07516  -0.0465  0.0370  1.0001  -4.8462   0.0000   0.0000   0.0000   0.2578
  16.000   1.3370   0.08635   0.07874  -0.0466  0.0352  1.0001  -4.9177   0.0000   0.0000   0.0000   0.2574
  16.250   1.3341   0.08995   0.08242  -0.0468  0.0337  1.0001  -4.9851   0.0000   0.0000   0.0000   0.2571
  16.500   1.3320   0.09349   0.08607  -0.0471  0.0323  1.0001  -5.0546   0.0000   0.0000   0.0000   0.2568
  16.750   1.3289   0.09721   0.08988  -0.0475  0.0311  1.0001  -5.1205   0.0000   0.0000   0.0000   0.2566
  17.000   1.3255   0.10103   0.09377  -0.0480  0.0303  1.0001  -5.1820   0.0000   0.0000   0.0000   0.2566
  17.250   1.3238   0.10459   0.09746  -0.0486  0.0293  1.0001  -5.2561   0.0000   0.0000   0.0000   0.2564
  17.500   1.3221   0.10820   0.10117  -0.0492  0.0285  1.0001  -5.3303   0.0000   0.0000   0.0000   0.2564
  17.750   1.3204   0.11181   0.10487  -0.0500  0.0278  1.0001  -5.4054   0.0000   0.0000   0.0000   0.2564
  18.000   1.3189   0.11540   0.10853  -0.0508  0.0272  1.0001  -5.4816   0.0000   0.0000   0.0000   0.2565
  18.250   1.3183   0.11884   0.11202  -0.0516  0.0267  1.0001  -5.5603   0.0000   0.0000   0.0000   0.2566
  18.500   1.3196   0.12197   0.11528  -0.0524  0.0260  1.0001  -5.6447   0.0000   0.0000   0.0000   0.2565
  18.750   1.3211   0.12510   0.11851  -0.0532  0.0254  1.0001  -5.7306   0.0000   0.0000   0.0000   0.2565
  19.000   1.3226   0.12823   0.12173  -0.0541  0.0248  1.0001  -5.8223   0.0000   0.0000   0.0000   0.2565
  19.250   1.3243   0.13134   0.12492  -0.0552  0.0242  1.0001  -5.9293   0.0000   0.0000   0.0000   0.2566
  19.500   1.3264   0.13438   0.12801  -0.0563  0.0237  1.0001  -6.0527   0.0000   0.0000   0.0000   0.2568
  19.750   1.3295   0.13714   0.13079  -0.0572  0.0232  1.0001  -6.1854   0.0000   0.0000   0.0000   0.2568
  20.000   1.3311   0.14036   0.13418  -0.0585  0.0227  1.0001  -6.2937   0.0000   0.0000   0.0000   0.2570


