xflr5 v6.61

 Calculated polar for: QX0026 v32

 1 1 Reynolds number fixed          Mach number fixed         

 xtrf =   1.000 (top)        1.000 (bottom)
 Mach =   0.000     Re =     0.520 e 6     Ncrit =   5.000

  alpha     CL        CD       CDp       Cm    Top Xtr Bot Xtr   Cpmin    Chinge    XCp    
 ------- -------- --------- --------- -------- ------- ------- -------- --------- ---------
 -10.000  -0.5679   0.02021   0.01409  -0.1080  0.7343  0.0106  -7.8527   0.0000   0.0000   0.0000   0.0430
  -9.750  -0.5449   0.01945   0.01320  -0.1078  0.7323  0.0109  -7.5700   0.0000   0.0000   0.0000   0.0354
  -9.500  -0.5212   0.01876   0.01237  -0.1076  0.7304  0.0113  -7.2864   0.0000   0.0000   0.0000   0.0268
  -9.250  -0.4976   0.01802   0.01154  -0.1074  0.7281  0.0117  -7.0048   0.0000   0.0000   0.0000   0.0173
  -9.000  -0.4731   0.01743   0.01088  -0.1072  0.7257  0.0121  -6.7109   0.0000   0.0000   0.0000   0.0063
  -8.750  -0.4480   0.01693   0.01030  -0.1071  0.7236  0.0126  -6.4328   0.0000   0.0000   0.0000  -0.0063
  -8.500  -0.4226   0.01644   0.00972  -0.1070  0.7217  0.0132  -6.1695   0.0000   0.0000   0.0000  -0.0206
  -8.250  -0.3970   0.01597   0.00915  -0.1069  0.7198  0.0138  -5.9116   0.0000   0.0000   0.0000  -0.0370
  -8.000  -0.3712   0.01550   0.00861  -0.1068  0.7177  0.0146  -5.6544   0.0000   0.0000   0.0000  -0.0558
  -7.750  -0.3450   0.01510   0.00818  -0.1068  0.7157  0.0154  -5.3878   0.0000   0.0000   0.0000  -0.0781
  -7.500  -0.3185   0.01475   0.00776  -0.1068  0.7137  0.0164  -5.1284   0.0000   0.0000   0.0000  -0.1044
  -7.250  -0.2919   0.01440   0.00732  -0.1067  0.7118  0.0173  -4.8791   0.0000   0.0000   0.0000  -0.1354
  -7.000  -0.2657   0.01401   0.00688  -0.1067  0.7102  0.0183  -4.6320   0.0000   0.0000   0.0000  -0.1723
  -6.750  -0.2387   0.01369   0.00653  -0.1067  0.7081  0.0193  -4.3849   0.0000   0.0000   0.0000  -0.2189
  -6.500  -0.2116   0.01339   0.00618  -0.1067  0.7060  0.0206  -4.1438   0.0000   0.0000   0.0000  -0.2778
  -6.250  -0.1847   0.01307   0.00583  -0.1067  0.7041  0.0221  -3.9051   0.0000   0.0000   0.0000  -0.3534
  -6.000  -0.1574   0.01281   0.00553  -0.1068  0.7023  0.0237  -3.6701   0.0000   0.0000   0.0000  -0.4566
  -5.750  -0.1302   0.01254   0.00520  -0.1068  0.7006  0.0254  -3.4426   0.0000   0.0000   0.0000  -0.6024
  -5.500  -0.1028   0.01230   0.00493  -0.1068  0.6988  0.0275  -3.2167   0.0000   0.0000   0.0000  -0.8277
  -5.250  -0.0754   0.01204   0.00466  -0.1068  0.6965  0.0297  -2.9975   0.0000   0.0000   0.0000  -1.2179
  -5.000  -0.0478   0.01181   0.00441  -0.1069  0.6942  0.0322  -2.7825   0.0000   0.0000   0.0000  -2.0613
  -4.750  -0.0202   0.01159   0.00416  -0.1069  0.6921  0.0353  -2.5726   0.0000   0.0000   0.0000  -5.2015
  -4.500   0.0075   0.01139   0.00393  -0.1070  0.6902  0.0391  -2.3674   0.0000   0.0000   0.0000  15.0091
  -4.250   0.0352   0.01120   0.00373  -0.1071  0.6886  0.0437  -2.1676   0.0000   0.0000   0.0000   3.3708
  -4.000   0.0630   0.01100   0.00355  -0.1072  0.6865  0.0496  -1.9859   0.0000   0.0000   0.0000   1.9933
  -3.750   0.0908   0.01081   0.00338  -0.1073  0.6843  0.0583  -1.8127   0.0000   0.0000   0.0000   1.4586
  -3.500   0.1186   0.01062   0.00322  -0.1073  0.6822  0.0695  -1.6442   0.0000   0.0000   0.0000   1.1747
  -3.000   0.1740   0.01025   0.00293  -0.1075  0.6788  0.1052  -1.3462   0.0000   0.0000   0.0000   0.8788
  -2.750   0.2017   0.01007   0.00283  -0.1076  0.6766  0.1290  -1.2175   0.0000   0.0000   0.0000   0.7920
  -2.500   0.2294   0.00989   0.00274  -0.1077  0.6739  0.1549  -1.0921   0.0000   0.0000   0.0000   0.7261
  -2.250   0.2571   0.00972   0.00264  -0.1078  0.6713  0.1834  -0.9775   0.0000   0.0000   0.0000   0.6744
  -2.000   0.2848   0.00954   0.00256  -0.1079  0.6692  0.2176  -0.8686   0.0000   0.0000   0.0000   0.6328
  -1.750   0.3123   0.00937   0.00249  -0.1080  0.6674  0.2600  -0.7626   0.0000   0.0000   0.0000   0.5987
  -1.500   0.3399   0.00920   0.00246  -0.1081  0.6648  0.3004  -0.7770   0.0000   0.0000   0.0000   0.5701
  -1.250   0.3675   0.00905   0.00244  -0.1082  0.6623  0.3435  -0.7930   0.0000   0.0000   0.0000   0.5457
  -1.000   0.3953   0.00893   0.00241  -0.1083  0.6597  0.3798  -0.8093   0.0000   0.0000   0.0000   0.5245
  -0.750   0.4230   0.00882   0.00237  -0.1084  0.6574  0.4174  -0.8256   0.0000   0.0000   0.0000   0.5062
  -0.500   0.4506   0.00872   0.00237  -0.1084  0.6546  0.4524  -0.8417   0.0000   0.0000   0.0000   0.4901
  -0.250   0.4782   0.00861   0.00238  -0.1085  0.6518  0.4909  -0.8585   0.0000   0.0000   0.0000   0.4758
   0.000   0.5057   0.00852   0.00238  -0.1085  0.6492  0.5274  -0.8765   0.0000   0.0000   0.0000   0.4631
   0.250   0.5331   0.00843   0.00239  -0.1085  0.6468  0.5688  -0.8945   0.0000   0.0000   0.0000   0.4516
   0.500   0.5601   0.00833   0.00242  -0.1084  0.6438  0.6136  -0.9123   0.0000   0.0000   0.0000   0.4412
   0.750   0.5871   0.00823   0.00246  -0.1082  0.6404  0.6553  -0.9300   0.0000   0.0000   0.0000   0.4318
   1.000   0.6136   0.00814   0.00249  -0.1080  0.6375  0.7032  -0.9480   0.0000   0.0000   0.0000   0.4230
   1.250   0.6396   0.00804   0.00253  -0.1076  0.6349  0.7549  -0.9674   0.0000   0.0000   0.0000   0.4149
   1.500   0.6654   0.00794   0.00260  -0.1071  0.6312  0.8060  -0.9867   0.0000   0.0000   0.0000   0.4074
   1.750   0.6915   0.00784   0.00265  -0.1066  0.6277  0.8584  -1.0062   0.0000   0.0000   0.0000   0.4003
   2.000   0.7319   0.00776   0.00269  -0.1093  0.6245  0.9319  -1.0338   0.0000   0.0000   0.0000   0.3951
   2.250   0.7848   0.00778   0.00275  -0.1149  0.6202  0.9876  -1.0705   0.0000   0.0000   0.0000   0.3920
   2.500   0.8185   0.00785   0.00280  -0.1164  0.6160  1.0001  -1.0968   0.0000   0.0000   0.0000   0.3874
   2.750   0.8446   0.00792   0.00285  -0.1161  0.6119  1.0001  -1.1188   0.0000   0.0000   0.0000   0.3824
   3.000   0.8706   0.00798   0.00291  -0.1158  0.6070  1.0001  -1.1426   0.0000   0.0000   0.0000   0.3777
   3.250   0.8966   0.00806   0.00295  -0.1155  0.6024  1.0001  -1.1673   0.0000   0.0000   0.0000   0.3732
   3.500   0.9226   0.00813   0.00303  -0.1152  0.5965  1.0001  -1.1967   0.0000   0.0000   0.0000   0.3689
   3.750   0.9482   0.00822   0.00310  -0.1149  0.5902  1.0001  -1.2304   0.0000   0.0000   0.0000   0.3649
   4.000   0.9737   0.00832   0.00317  -0.1145  0.5824  1.0001  -1.2658   0.0000   0.0000   0.0000   0.3610
   4.250   0.9992   0.00842   0.00327  -0.1142  0.5742  1.0001  -1.3014   0.0000   0.0000   0.0000   0.3574
   4.500   1.0246   0.00853   0.00337  -0.1138  0.5659  1.0001  -1.3370   0.0000   0.0000   0.0000   0.3539
   4.750   1.0496   0.00866   0.00348  -0.1133  0.5572  1.0001  -1.3726   0.0000   0.0000   0.0000   0.3505
   5.000   1.0742   0.00881   0.00361  -0.1129  0.5481  1.0001  -1.4081   0.0000   0.0000   0.0000   0.3472
   5.250   1.0989   0.00897   0.00376  -0.1124  0.5388  1.0001  -1.4458   0.0000   0.0000   0.0000   0.3441
   5.500   1.1236   0.00913   0.00391  -0.1119  0.5294  1.0001  -1.4853   0.0000   0.0000   0.0000   0.3411
   5.750   1.1476   0.00932   0.00409  -0.1113  0.5191  1.0001  -1.5243   0.0000   0.0000   0.0000   0.3382
   6.000   1.1709   0.00953   0.00428  -0.1106  0.5083  1.0001  -1.5630   0.0000   0.0000   0.0000   0.3354
   6.250   1.1939   0.00977   0.00450  -0.1099  0.4969  1.0001  -1.6027   0.0000   0.0000   0.0000   0.3326
   6.500   1.2155   0.01005   0.00475  -0.1089  0.4822  1.0001  -1.6849   0.0000   0.0000   0.0000   0.3298
   6.750   1.2351   0.01042   0.00505  -0.1076  0.4642  1.0001  -1.7958   0.0000   0.0000   0.0000   0.3269
   7.000   1.2543   0.01079   0.00537  -0.1062  0.4463  1.0001  -1.9079   0.0000   0.0000   0.0000   0.3242
   7.250   1.2719   0.01123   0.00574  -0.1046  0.4283  1.0001  -2.0243   0.0000   0.0000   0.0000   0.3214
   7.500   1.2869   0.01176   0.00619  -0.1026  0.4061  1.0001  -2.1379   0.0000   0.0000   0.0000   0.3185
   7.750   1.2971   0.01242   0.00673  -0.0997  0.3790  1.0001  -2.2409   0.0000   0.0000   0.0000   0.3153
   8.000   1.3025   0.01320   0.00737  -0.0961  0.3507  1.0001  -2.3321   0.0000   0.0000   0.0000   0.3118
   8.250   1.3059   0.01418   0.00819  -0.0924  0.3206  1.0001  -2.4185   0.0000   0.0000   0.0000   0.3084
   8.500   1.3088   0.01533   0.00920  -0.0891  0.2912  1.0001  -2.5040   0.0000   0.0000   0.0000   0.3053
   8.750   1.3126   0.01661   0.01035  -0.0863  0.2639  1.0001  -2.5920   0.0000   0.0000   0.0000   0.3026
   9.000   1.3178   0.01797   0.01159  -0.0840  0.2388  1.0001  -2.6844   0.0000   0.0000   0.0000   0.3001
   9.250   1.3231   0.01943   0.01293  -0.0819  0.2165  1.0001  -2.7775   0.0000   0.0000   0.0000   0.2978
   9.500   1.3312   0.02076   0.01419  -0.0802  0.1981  1.0001  -2.8797   0.0000   0.0000   0.0000   0.2958
   9.750   1.3396   0.02208   0.01545  -0.0786  0.1827  1.0001  -2.9841   0.0000   0.0000   0.0000   0.2937
  10.000   1.3481   0.02342   0.01674  -0.0770  0.1669  1.0001  -3.0894   0.0000   0.0000   0.0000   0.2918
  10.250   1.3556   0.02483   0.01809  -0.0754  0.1516  1.0001  -3.1930   0.0000   0.0000   0.0000   0.2898
  10.500   1.3618   0.02635   0.01955  -0.0737  0.1343  1.0001  -3.2930   0.0000   0.0000   0.0000   0.2879
  10.750   1.3658   0.02804   0.02114  -0.0719  0.1149  1.0001  -3.3866   0.0000   0.0000   0.0000   0.2859
  11.000   1.3677   0.02991   0.02291  -0.0700  0.0949  1.0001  -3.4734   0.0000   0.0000   0.0000   0.2840
  11.250   1.3701   0.03177   0.02469  -0.0682  0.0789  1.0001  -3.5624   0.0000   0.0000   0.0000   0.2821
  11.500   1.3742   0.03351   0.02639  -0.0665  0.0678  1.0001  -3.6573   0.0000   0.0000   0.0000   0.2802
  11.750   1.3796   0.03519   0.02805  -0.0651  0.0590  1.0001  -3.7577   0.0000   0.0000   0.0000   0.2785
  12.000   1.3857   0.03686   0.02971  -0.0637  0.0523  1.0001  -3.8652   0.0000   0.0000   0.0000   0.2769
  12.250   1.3927   0.03848   0.03134  -0.0625  0.0463  1.0001  -3.9806   0.0000   0.0000   0.0000   0.2753
  12.500   1.3994   0.04018   0.03305  -0.0613  0.0403  1.0001  -4.0957   0.0000   0.0000   0.0000   0.2738
  12.750   1.4054   0.04198   0.03485  -0.0602  0.0348  1.0001  -4.2087   0.0000   0.0000   0.0000   0.2723
  13.000   1.4113   0.04381   0.03670  -0.0591  0.0304  1.0001  -4.3219   0.0000   0.0000   0.0000   0.2708
  13.250   1.4172   0.04569   0.03859  -0.0581  0.0271  1.0001  -4.4358   0.0000   0.0000   0.0000   0.2694
  13.500   1.4234   0.04758   0.04053  -0.0572  0.0247  1.0001  -4.5509   0.0000   0.0000   0.0000   0.2681
  13.750   1.4288   0.04957   0.04256  -0.0563  0.0229  1.0001  -4.6635   0.0000   0.0000   0.0000   0.2668
  14.000   1.4349   0.05153   0.04457  -0.0555  0.0214  1.0001  -4.7792   0.0000   0.0000   0.0000   0.2656
  14.250   1.4396   0.05367   0.04676  -0.0547  0.0202  1.0001  -4.8899   0.0000   0.0000   0.0000   0.2644
  14.500   1.4450   0.05578   0.04893  -0.0540  0.0193  1.0001  -5.0032   0.0000   0.0000   0.0000   0.2632
  14.750   1.4500   0.05794   0.05116  -0.0533  0.0185  1.0001  -5.1210   0.0000   0.0000   0.0000   0.2621
  15.000   1.4541   0.06023   0.05352  -0.0527  0.0178  1.0001  -5.2402   0.0000   0.0000   0.0000   0.2610
  15.250   1.4570   0.06271   0.05606  -0.0521  0.0171  1.0001  -5.3545   0.0000   0.0000   0.0000   0.2600
  15.500   1.4601   0.06518   0.05860  -0.0516  0.0166  1.0001  -5.4698   0.0000   0.0000   0.0000   0.2590
  15.750   1.4635   0.06766   0.06117  -0.0512  0.0161  1.0001  -5.5866   0.0000   0.0000   0.0000   0.2581
  16.000   1.4661   0.07027   0.06385  -0.0508  0.0157  1.0001  -5.7003   0.0000   0.0000   0.0000   0.2572
  16.250   1.4679   0.07301   0.06667  -0.0505  0.0153  1.0001  -5.8108   0.0000   0.0000   0.0000   0.2564
  16.500   1.4689   0.07588   0.06963  -0.0503  0.0150  1.0001  -5.9243   0.0000   0.0000   0.0000   0.2557
  16.750   1.4688   0.07892   0.07274  -0.0501  0.0147  1.0001  -6.0336   0.0000   0.0000   0.0000   0.2550
  17.000   1.4676   0.08214   0.07603  -0.0501  0.0144  1.0001  -6.1365   0.0000   0.0000   0.0000   0.2544
  17.250   1.4649   0.08561   0.07959  -0.0501  0.0142  1.0001  -6.2297   0.0000   0.0000   0.0000   0.2539
  17.500   1.4635   0.08897   0.08303  -0.0503  0.0140  1.0001  -6.3291   0.0000   0.0000   0.0000   0.2534
  17.750   1.4621   0.09234   0.08652  -0.0505  0.0138  1.0001  -6.4279   0.0000   0.0000   0.0000   0.2530
  18.000   1.4600   0.09585   0.09012  -0.0508  0.0136  1.0001  -6.5227   0.0000   0.0000   0.0000   0.2527
  18.250   1.4576   0.09944   0.09381  -0.0513  0.0134  1.0001  -6.6146   0.0000   0.0000   0.0000   0.2524
  18.500   1.4550   0.10312   0.09758  -0.0519  0.0132  1.0001  -6.7277   0.0000   0.0000   0.0000   0.2523
  18.750   1.4521   0.10686   0.10142  -0.0525  0.0130  1.0001  -6.8404   0.0000   0.0000   0.0000   0.2522
  19.000   1.4489   0.11064   0.10529  -0.0533  0.0128  1.0001  -6.9508   0.0000   0.0000   0.0000   0.2522
  19.250   1.4457   0.11449   0.10923  -0.0543  0.0126  1.0001  -7.0596   0.0000   0.0000   0.0000   0.2523
  19.500   1.4424   0.11841   0.11325  -0.0553  0.0124  1.0001  -7.1658   0.0000   0.0000   0.0000   0.2525
  19.750   1.4387   0.12240   0.11733  -0.0565  0.0123  1.0001  -7.2679   0.0000   0.0000   0.0000   0.2528
  20.000   1.4347   0.12649   0.12150  -0.0579  0.0121  1.0001  -7.3643   0.0000   0.0000   0.0000   0.2532


