xflr5 v6.61

 Calculated polar for: QX0026 v32

 1 1 Reynolds number fixed          Mach number fixed         

 xtrf =   1.000 (top)        1.000 (bottom)
 Mach =   0.000     Re =     0.440 e 6     Ncrit =   5.000

  alpha     CL        CD       CDp       Cm    Top Xtr Bot Xtr   Cpmin    Chinge    XCp    
 ------- -------- --------- --------- -------- ------- ------- -------- --------- ---------
 -10.000  -0.5592   0.02186   0.01563  -0.1086  0.7417  0.0113  -7.7103   0.0000   0.0000   0.0000   0.0387
  -9.750  -0.5378   0.02088   0.01454  -0.1084  0.7392  0.0116  -7.4473   0.0000   0.0000   0.0000   0.0315
  -9.500  -0.5149   0.02011   0.01369  -0.1082  0.7368  0.0120  -7.1622   0.0000   0.0000   0.0000   0.0228
  -9.250  -0.4911   0.01946   0.01294  -0.1081  0.7347  0.0124  -6.8742   0.0000   0.0000   0.0000   0.0128
  -9.000  -0.4670   0.01883   0.01220  -0.1079  0.7327  0.0129  -6.5926   0.0000   0.0000   0.0000   0.0017
  -8.750  -0.4426   0.01821   0.01145  -0.1077  0.7307  0.0135  -6.3332   0.0000   0.0000   0.0000  -0.0108
  -8.500  -0.4177   0.01762   0.01075  -0.1076  0.7282  0.0141  -6.0869   0.0000   0.0000   0.0000  -0.0251
  -8.250  -0.3929   0.01704   0.01011  -0.1075  0.7259  0.0148  -5.8313   0.0000   0.0000   0.0000  -0.0414
  -8.000  -0.3671   0.01662   0.00963  -0.1074  0.7239  0.0156  -5.5661   0.0000   0.0000   0.0000  -0.0609
  -7.750  -0.3412   0.01619   0.00910  -0.1074  0.7222  0.0165  -5.3139   0.0000   0.0000   0.0000  -0.0834
  -7.500  -0.3152   0.01576   0.00856  -0.1073  0.7206  0.0174  -5.0726   0.0000   0.0000   0.0000  -0.1096
  -7.250  -0.2894   0.01529   0.00806  -0.1072  0.7183  0.0183  -4.8263   0.0000   0.0000   0.0000  -0.1405
  -7.000  -0.2629   0.01491   0.00763  -0.1072  0.7161  0.0194  -4.5818   0.0000   0.0000   0.0000  -0.1785
  -6.750  -0.2363   0.01456   0.00720  -0.1071  0.7140  0.0206  -4.3439   0.0000   0.0000   0.0000  -0.2255
  -6.500  -0.2098   0.01420   0.00680  -0.1071  0.7122  0.0220  -4.1052   0.0000   0.0000   0.0000  -0.2842
  -6.250  -0.1828   0.01390   0.00644  -0.1071  0.7107  0.0236  -3.8697   0.0000   0.0000   0.0000  -0.3616
  -6.000  -0.1559   0.01358   0.00606  -0.1071  0.7088  0.0252  -3.6432   0.0000   0.0000   0.0000  -0.4655
  -5.750  -0.1288   0.01328   0.00576  -0.1071  0.7066  0.0271  -3.4158   0.0000   0.0000   0.0000  -0.6141
  -5.500  -0.1016   0.01300   0.00544  -0.1071  0.7045  0.0293  -3.1957   0.0000   0.0000   0.0000  -0.8431
  -5.250  -0.0744   0.01273   0.00514  -0.1071  0.7025  0.0316  -2.9785   0.0000   0.0000   0.0000  -1.2403
  -5.000  -0.0471   0.01248   0.00484  -0.1071  0.7006  0.0343  -2.7670   0.0000   0.0000   0.0000  -2.1021
  -4.750  -0.0195   0.01227   0.00459  -0.1072  0.6986  0.0378  -2.5589   0.0000   0.0000   0.0000  -5.4172
  -4.500   0.0079   0.01203   0.00436  -0.1072  0.6962  0.0419  -2.3563   0.0000   0.0000   0.0000  14.1647
  -4.250   0.0355   0.01181   0.00414  -0.1073  0.6940  0.0468  -2.1587   0.0000   0.0000   0.0000   3.3546
  -4.000   0.0631   0.01161   0.00393  -0.1073  0.6921  0.0537  -1.9808   0.0000   0.0000   0.0000   1.9930
  -3.750   0.0908   0.01140   0.00373  -0.1074  0.6903  0.0633  -1.8089   0.0000   0.0000   0.0000   1.4608
  -3.500   0.1184   0.01120   0.00356  -0.1075  0.6886  0.0763  -1.6415   0.0000   0.0000   0.0000   1.1770
  -3.250   0.1460   0.01100   0.00342  -0.1076  0.6863  0.0938  -1.4825   0.0000   0.0000   0.0000   1.0014
  -3.000   0.1735   0.01080   0.00329  -0.1077  0.6841  0.1164  -1.3453   0.0000   0.0000   0.0000   0.8814
  -2.750   0.2011   0.01060   0.00318  -0.1077  0.6821  0.1419  -1.2171   0.0000   0.0000   0.0000   0.7942
  -2.500   0.2288   0.01042   0.00306  -0.1078  0.6800  0.1695  -1.0921   0.0000   0.0000   0.0000   0.7280
  -2.250   0.2564   0.01024   0.00295  -0.1079  0.6779  0.2018  -0.9778   0.0000   0.0000   0.0000   0.6760
  -2.000   0.2837   0.01004   0.00290  -0.1080  0.6751  0.2418  -0.8698   0.0000   0.0000   0.0000   0.6346
  -1.750   0.3111   0.00986   0.00285  -0.1081  0.6726  0.2846  -0.7642   0.0000   0.0000   0.0000   0.6002
  -1.500   0.3386   0.00970   0.00280  -0.1081  0.6704  0.3281  -0.7753   0.0000   0.0000   0.0000   0.5714
  -1.250   0.3662   0.00957   0.00276  -0.1082  0.6685  0.3695  -0.7915   0.0000   0.0000   0.0000   0.5467
  -1.000   0.3939   0.00946   0.00274  -0.1083  0.6662  0.4064  -0.8075   0.0000   0.0000   0.0000   0.5255
  -0.750   0.4213   0.00934   0.00274  -0.1083  0.6632  0.4436  -0.8235   0.0000   0.0000   0.0000   0.5071
  -0.500   0.4487   0.00923   0.00273  -0.1083  0.6603  0.4822  -0.8396   0.0000   0.0000   0.0000   0.4909
  -0.250   0.4761   0.00912   0.00271  -0.1083  0.6579  0.5226  -0.8565   0.0000   0.0000   0.0000   0.4765
   0.000   0.5034   0.00902   0.00273  -0.1082  0.6555  0.5619  -0.8744   0.0000   0.0000   0.0000   0.4636
   0.250   0.5302   0.00892   0.00277  -0.1081  0.6525  0.6075  -0.8920   0.0000   0.0000   0.0000   0.4521
   0.500   0.5570   0.00882   0.00280  -0.1079  0.6496  0.6513  -0.9096   0.0000   0.0000   0.0000   0.4416
   0.750   0.5835   0.00872   0.00281  -0.1076  0.6470  0.6977  -0.9273   0.0000   0.0000   0.0000   0.4319
   1.000   0.6094   0.00861   0.00287  -0.1072  0.6437  0.7490  -0.9449   0.0000   0.0000   0.0000   0.4230
   1.250   0.6349   0.00850   0.00293  -0.1067  0.6405  0.8027  -0.9640   0.0000   0.0000   0.0000   0.4147
   1.500   0.6613   0.00840   0.00296  -0.1062  0.6376  0.8568  -0.9837   0.0000   0.0000   0.0000   0.4070
   1.750   0.7020   0.00832   0.00300  -0.1089  0.6346  0.9277  -1.0113   0.0000   0.0000   0.0000   0.4012
   2.250   0.7894   0.00840   0.00309  -0.1161  0.6267  1.0001  -1.0724   0.0000   0.0000   0.0000   0.3926
   2.500   0.8155   0.00847   0.00313  -0.1159  0.6232  1.0001  -1.0943   0.0000   0.0000   0.0000   0.3873
   2.750   0.8414   0.00853   0.00320  -0.1156  0.6186  1.0001  -1.1161   0.0000   0.0000   0.0000   0.3823
   3.000   0.8676   0.00860   0.00323  -0.1153  0.6146  1.0001  -1.1400   0.0000   0.0000   0.0000   0.3775
   3.250   0.8935   0.00867   0.00331  -0.1150  0.6096  1.0001  -1.1646   0.0000   0.0000   0.0000   0.3731
   3.500   0.9195   0.00875   0.00337  -0.1147  0.6046  1.0001  -1.1941   0.0000   0.0000   0.0000   0.3688
   3.750   0.9454   0.00883   0.00345  -0.1145  0.5988  1.0001  -1.2275   0.0000   0.0000   0.0000   0.3648
   4.000   0.9710   0.00892   0.00351  -0.1141  0.5925  1.0001  -1.2630   0.0000   0.0000   0.0000   0.3609
   4.250   0.9964   0.00901   0.00362  -0.1137  0.5845  1.0001  -1.2984   0.0000   0.0000   0.0000   0.3572
   4.500   1.0218   0.00911   0.00371  -0.1133  0.5766  1.0001  -1.3341   0.0000   0.0000   0.0000   0.3537
   4.750   1.0469   0.00923   0.00382  -0.1129  0.5687  1.0001  -1.3697   0.0000   0.0000   0.0000   0.3503
   5.250   1.0964   0.00951   0.00408  -0.1120  0.5508  1.0001  -1.4428   0.0000   0.0000   0.0000   0.3440
   5.500   1.1210   0.00967   0.00423  -0.1115  0.5417  1.0001  -1.4821   0.0000   0.0000   0.0000   0.3410
   5.750   1.1453   0.00984   0.00440  -0.1110  0.5326  1.0001  -1.5214   0.0000   0.0000   0.0000   0.3381
   6.000   1.1690   0.01003   0.00460  -0.1103  0.5223  1.0001  -1.5603   0.0000   0.0000   0.0000   0.3352
   6.250   1.1920   0.01025   0.00480  -0.1096  0.5114  1.0001  -1.5999   0.0000   0.0000   0.0000   0.3325
   6.500   1.2145   0.01050   0.00503  -0.1087  0.4999  1.0001  -1.6801   0.0000   0.0000   0.0000   0.3297
   6.750   1.2353   0.01080   0.00530  -0.1076  0.4848  1.0001  -1.7937   0.0000   0.0000   0.0000   0.3270
   7.000   1.2543   0.01117   0.00561  -0.1062  0.4670  1.0001  -1.9054   0.0000   0.0000   0.0000   0.3242
   7.250   1.2722   0.01158   0.00597  -0.1046  0.4495  1.0001  -2.0205   0.0000   0.0000   0.0000   0.3214
   7.500   1.2884   0.01205   0.00638  -0.1028  0.4304  1.0001  -2.1371   0.0000   0.0000   0.0000   0.3185
   7.750   1.3014   0.01262   0.00686  -0.1004  0.4085  1.0001  -2.2474   0.0000   0.0000   0.0000   0.3156
   8.000   1.3091   0.01329   0.00742  -0.0971  0.3837  1.0001  -2.3450   0.0000   0.0000   0.0000   0.3122
   8.250   1.3135   0.01416   0.00816  -0.0935  0.3563  1.0001  -2.4345   0.0000   0.0000   0.0000   0.3088
   8.500   1.3158   0.01526   0.00911  -0.0899  0.3268  1.0001  -2.5186   0.0000   0.0000   0.0000   0.3056
   8.750   1.3175   0.01657   0.01029  -0.0867  0.2971  1.0001  -2.6011   0.0000   0.0000   0.0000   0.3026
   9.000   1.3204   0.01801   0.01159  -0.0841  0.2695  1.0001  -2.6869   0.0000   0.0000   0.0000   0.3001
   9.250   1.3240   0.01956   0.01301  -0.0818  0.2446  1.0001  -2.7749   0.0000   0.0000   0.0000   0.2977
   9.500   1.3286   0.02111   0.01446  -0.0797  0.2212  1.0001  -2.8665   0.0000   0.0000   0.0000   0.2955
   9.750   1.3355   0.02254   0.01581  -0.0780  0.2029  1.0001  -2.9659   0.0000   0.0000   0.0000   0.2934
  10.000   1.3427   0.02396   0.01718  -0.0763  0.1870  1.0001  -3.0672   0.0000   0.0000   0.0000   0.2914
  10.250   1.3501   0.02539   0.01856  -0.0747  0.1716  1.0001  -3.1696   0.0000   0.0000   0.0000   0.2895
  10.500   1.3567   0.02688   0.01999  -0.0731  0.1561  1.0001  -3.2706   0.0000   0.0000   0.0000   0.2876
  10.750   1.3626   0.02845   0.02150  -0.0715  0.1393  1.0001  -3.3698   0.0000   0.0000   0.0000   0.2857
  11.000   1.3660   0.03020   0.02316  -0.0697  0.1204  1.0001  -3.4617   0.0000   0.0000   0.0000   0.2838
  11.250   1.3678   0.03211   0.02498  -0.0678  0.1004  1.0001  -3.5482   0.0000   0.0000   0.0000   0.2819
  11.500   1.3694   0.03405   0.02683  -0.0660  0.0837  1.0001  -3.6345   0.0000   0.0000   0.0000   0.2800
  11.750   1.3723   0.03593   0.02867  -0.0643  0.0715  1.0001  -3.7253   0.0000   0.0000   0.0000   0.2782
  12.000   1.3766   0.03775   0.03046  -0.0629  0.0623  1.0001  -3.8244   0.0000   0.0000   0.0000   0.2766
  12.250   1.3819   0.03954   0.03224  -0.0616  0.0547  1.0001  -3.9324   0.0000   0.0000   0.0000   0.2750
  12.500   1.3876   0.04134   0.03406  -0.0604  0.0484  1.0001  -4.0424   0.0000   0.0000   0.0000   0.2734
  12.750   1.3937   0.04314   0.03587  -0.0593  0.0424  1.0001  -4.1546   0.0000   0.0000   0.0000   0.2720
  13.000   1.3995   0.04502   0.03776  -0.0583  0.0368  1.0001  -4.2661   0.0000   0.0000   0.0000   0.2706
  13.250   1.4048   0.04697   0.03973  -0.0573  0.0322  1.0001  -4.3764   0.0000   0.0000   0.0000   0.2692
  13.500   1.4100   0.04897   0.04175  -0.0563  0.0288  1.0001  -4.4863   0.0000   0.0000   0.0000   0.2679
  13.750   1.4147   0.05105   0.04386  -0.0554  0.0263  1.0001  -4.5950   0.0000   0.0000   0.0000   0.2666
  14.000   1.4197   0.05315   0.04602  -0.0546  0.0243  1.0001  -4.7044   0.0000   0.0000   0.0000   0.2653
  14.250   1.4240   0.05536   0.04828  -0.0538  0.0229  1.0001  -4.8113   0.0000   0.0000   0.0000   0.2642
  14.500   1.4288   0.05754   0.05053  -0.0531  0.0216  1.0001  -4.9202   0.0000   0.0000   0.0000   0.2630
  14.750   1.4322   0.05990   0.05295  -0.0525  0.0206  1.0001  -5.0272   0.0000   0.0000   0.0000   0.2619
  15.000   1.4349   0.06241   0.05552  -0.0519  0.0198  1.0001  -5.1367   0.0000   0.0000   0.0000   0.2609
  15.250   1.4387   0.06481   0.05801  -0.0514  0.0191  1.0001  -5.2516   0.0000   0.0000   0.0000   0.2599
  15.500   1.4416   0.06734   0.06062  -0.0509  0.0184  1.0001  -5.3631   0.0000   0.0000   0.0000   0.2590
  15.750   1.4435   0.07003   0.06338  -0.0505  0.0178  1.0001  -5.4715   0.0000   0.0000   0.0000   0.2581
  16.000   1.4443   0.07290   0.06632  -0.0502  0.0173  1.0001  -5.5746   0.0000   0.0000   0.0000   0.2573
  16.250   1.4438   0.07597   0.06946  -0.0500  0.0169  1.0001  -5.6706   0.0000   0.0000   0.0000   0.2566
  16.500   1.4450   0.07885   0.07245  -0.0498  0.0165  1.0001  -5.7773   0.0000   0.0000   0.0000   0.2559
  16.750   1.4454   0.08189   0.07558  -0.0498  0.0161  1.0001  -5.8850   0.0000   0.0000   0.0000   0.2553
  17.000   1.4450   0.08508   0.07886  -0.0498  0.0158  1.0001  -5.9883   0.0000   0.0000   0.0000   0.2547
  17.250   1.4440   0.08838   0.08226  -0.0499  0.0155  1.0001  -6.0884   0.0000   0.0000   0.0000   0.2542
  17.500   1.4424   0.09178   0.08575  -0.0501  0.0152  1.0001  -6.1851   0.0000   0.0000   0.0000   0.2538
  17.750   1.4402   0.09530   0.08937  -0.0505  0.0150  1.0001  -6.2779   0.0000   0.0000   0.0000   0.2535
  18.000   1.4374   0.09897   0.09313  -0.0509  0.0147  1.0001  -6.3659   0.0000   0.0000   0.0000   0.2533
  18.250   1.4339   0.10278   0.09702  -0.0515  0.0145  1.0001  -6.4487   0.0000   0.0000   0.0000   0.2532
  18.500   1.4295   0.10674   0.10107  -0.0523  0.0143  1.0001  -6.5279   0.0000   0.0000   0.0000   0.2532
  18.750   1.4241   0.11089   0.10530  -0.0531  0.0142  1.0001  -6.6175   0.0000   0.0000   0.0000   0.2533
  19.000   1.4208   0.11478   0.10929  -0.0541  0.0140  1.0001  -6.7201   0.0000   0.0000   0.0000   0.2535
  19.250   1.4185   0.11856   0.11316  -0.0551  0.0138  1.0001  -6.8291   0.0000   0.0000   0.0000   0.2536
  19.500   1.4161   0.12237   0.11708  -0.0562  0.0136  1.0001  -6.9365   0.0000   0.0000   0.0000   0.2538
  19.750   1.4137   0.12620   0.12102  -0.0574  0.0134  1.0001  -7.0421   0.0000   0.0000   0.0000   0.2541
  20.000   1.4113   0.13006   0.12497  -0.0588  0.0132  1.0001  -7.1462   0.0000   0.0000   0.0000   0.2545


