xflr5 v6.61

 Calculated polar for: QX0026 v32

 1 1 Reynolds number fixed          Mach number fixed         

 xtrf =   1.000 (top)        1.000 (bottom)
 Mach =   0.000     Re =     0.780 e 6     Ncrit =   5.000

  alpha     CL        CD       CDp       Cm    Top Xtr Bot Xtr   Cpmin    Chinge    XCp    
 ------- -------- --------- --------- -------- ------- ------- -------- --------- ---------
 -10.000  -0.5845   0.01695   0.01092  -0.1065  0.7195  0.0090  -8.1658   0.0000   0.0000   0.0000   0.0513
  -9.750  -0.5601   0.01633   0.01025  -0.1064  0.7173  0.0094  -7.8525   0.0000   0.0000   0.0000   0.0436
  -9.500  -0.5348   0.01584   0.00969  -0.1063  0.7150  0.0097  -7.5333   0.0000   0.0000   0.0000   0.0348
  -9.250  -0.5093   0.01540   0.00918  -0.1062  0.7128  0.0101  -7.2169   0.0000   0.0000   0.0000   0.0249
  -9.000  -0.4835   0.01498   0.00868  -0.1061  0.7110  0.0105  -6.9062   0.0000   0.0000   0.0000   0.0139
  -8.750  -0.4574   0.01457   0.00821  -0.1060  0.7092  0.0110  -6.6176   0.0000   0.0000   0.0000   0.0014
  -8.500  -0.4310   0.01420   0.00776  -0.1060  0.7073  0.0114  -6.3382   0.0000   0.0000   0.0000  -0.0130
  -8.250  -0.4049   0.01375   0.00728  -0.1059  0.7053  0.0120  -6.0652   0.0000   0.0000   0.0000  -0.0289
  -8.000  -0.3784   0.01341   0.00689  -0.1059  0.7033  0.0126  -5.7881   0.0000   0.0000   0.0000  -0.0476
  -7.750  -0.3516   0.01310   0.00653  -0.1059  0.7014  0.0133  -5.5158   0.0000   0.0000   0.0000  -0.0694
  -7.500  -0.3246   0.01281   0.00617  -0.1059  0.6997  0.0140  -5.2493   0.0000   0.0000   0.0000  -0.0949
  -7.250  -0.2976   0.01249   0.00582  -0.1059  0.6979  0.0148  -4.9864   0.0000   0.0000   0.0000  -0.1253
  -7.000  -0.2703   0.01221   0.00553  -0.1060  0.6960  0.0158  -4.7230   0.0000   0.0000   0.0000  -0.1623
  -6.750  -0.2429   0.01196   0.00524  -0.1060  0.6941  0.0169  -4.4659   0.0000   0.0000   0.0000  -0.2080
  -6.500  -0.2155   0.01171   0.00495  -0.1061  0.6924  0.0179  -4.2162   0.0000   0.0000   0.0000  -0.2651
  -6.250  -0.1880   0.01147   0.00468  -0.1061  0.6907  0.0191  -3.9694   0.0000   0.0000   0.0000  -0.3391
  -6.000  -0.1604   0.01127   0.00443  -0.1062  0.6890  0.0204  -3.7284   0.0000   0.0000   0.0000  -0.4393
  -5.750  -0.1327   0.01103   0.00418  -0.1062  0.6869  0.0220  -3.4919   0.0000   0.0000   0.0000  -0.5819
  -5.500  -0.1049   0.01083   0.00397  -0.1063  0.6847  0.0238  -3.2597   0.0000   0.0000   0.0000  -0.8015
  -5.250  -0.0771   0.01062   0.00374  -0.1064  0.6825  0.0257  -3.0343   0.0000   0.0000   0.0000  -1.1785
  -5.000  -0.0492   0.01044   0.00354  -0.1065  0.6805  0.0280  -2.8136   0.0000   0.0000   0.0000  -1.9836
  -4.750  -0.0214   0.01026   0.00334  -0.1066  0.6789  0.0305  -2.5993   0.0000   0.0000   0.0000  -4.8813
  -4.500   0.0067   0.01011   0.00317  -0.1067  0.6771  0.0333  -2.3898   0.0000   0.0000   0.0000  16.6667
  -4.250   0.0348   0.00993   0.00301  -0.1068  0.6751  0.0373  -2.1857   0.0000   0.0000   0.0000   3.4029
  -4.000   0.0629   0.00977   0.00285  -0.1069  0.6730  0.0421  -1.9954   0.0000   0.0000   0.0000   1.9929
  -3.500   0.1190   0.00946   0.00256  -0.1072  0.6692  0.0563  -1.6491   0.0000   0.0000   0.0000   1.1697
  -3.250   0.1469   0.00931   0.00243  -0.1073  0.6674  0.0674  -1.4863   0.0000   0.0000   0.0000   0.9941
  -3.000   0.1750   0.00914   0.00232  -0.1074  0.6650  0.0824  -1.3484   0.0000   0.0000   0.0000   0.8743
  -2.750   0.2030   0.00897   0.00222  -0.1076  0.6624  0.1011  -1.2185   0.0000   0.0000   0.0000   0.7879
  -2.500   0.2310   0.00881   0.00212  -0.1077  0.6601  0.1240  -1.0920   0.0000   0.0000   0.0000   0.7225
  -2.250   0.2589   0.00866   0.00204  -0.1078  0.6580  0.1473  -0.9761   0.0000   0.0000   0.0000   0.6712
  -2.000   0.2869   0.00852   0.00197  -0.1079  0.6560  0.1726  -0.8663   0.0000   0.0000   0.0000   0.6299
  -1.750   0.3150   0.00837   0.00191  -0.1081  0.6535  0.2018  -0.7642   0.0000   0.0000   0.0000   0.5959
  -1.500   0.3427   0.00819   0.00186  -0.1082  0.6509  0.2416  -0.7802   0.0000   0.0000   0.0000   0.5676
  -1.250   0.3705   0.00805   0.00181  -0.1083  0.6484  0.2789  -0.7965   0.0000   0.0000   0.0000   0.5435
  -1.000   0.3982   0.00792   0.00178  -0.1084  0.6461  0.3211  -0.8127   0.0000   0.0000   0.0000   0.5227
  -0.750   0.4263   0.00781   0.00177  -0.1086  0.6434  0.3553  -0.8291   0.0000   0.0000   0.0000   0.5046
  -0.500   0.4543   0.00770   0.00176  -0.1087  0.6406  0.3903  -0.8456   0.0000   0.0000   0.0000   0.4887
  -0.250   0.4823   0.00762   0.00176  -0.1088  0.6379  0.4219  -0.8622   0.0000   0.0000   0.0000   0.4746
   0.000   0.5100   0.00755   0.00175  -0.1089  0.6354  0.4564  -0.8804   0.0000   0.0000   0.0000   0.4620
   0.250   0.5381   0.00747   0.00177  -0.1091  0.6323  0.4871  -0.8988   0.0000   0.0000   0.0000   0.4508
   0.500   0.5660   0.00739   0.00178  -0.1092  0.6291  0.5219  -0.9170   0.0000   0.0000   0.0000   0.4406
   0.750   0.5935   0.00731   0.00181  -0.1092  0.6261  0.5637  -0.9351   0.0000   0.0000   0.0000   0.4313
   1.000   0.6210   0.00724   0.00184  -0.1092  0.6230  0.6023  -0.9534   0.0000   0.0000   0.0000   0.4228
   1.250   0.6484   0.00716   0.00188  -0.1092  0.6193  0.6446  -0.9735   0.0000   0.0000   0.0000   0.4151
   1.500   0.6752   0.00708   0.00193  -0.1090  0.6157  0.6924  -0.9934   0.0000   0.0000   0.0000   0.4078
   1.750   0.7017   0.00699   0.00198  -0.1088  0.6121  0.7418  -1.0131   0.0000   0.0000   0.0000   0.4011
   2.000   0.7280   0.00691   0.00204  -0.1085  0.6079  0.7871  -1.0328   0.0000   0.0000   0.0000   0.3948
   2.250   0.7538   0.00684   0.00209  -0.1080  0.6039  0.8341  -1.0538   0.0000   0.0000   0.0000   0.3888
   2.500   0.7806   0.00673   0.00216  -0.1077  0.5995  0.8967  -1.0762   0.0000   0.0000   0.0000   0.3832
   2.750   0.8355   0.00673   0.00224  -0.1138  0.5939  0.9679  -1.1149   0.0000   0.0000   0.0000   0.3811
   3.000   0.8770   0.00681   0.00231  -0.1170  0.5879  0.9998  -1.1478   0.0000   0.0000   0.0000   0.3780
   3.250   0.9028   0.00691   0.00236  -0.1167  0.5811  1.0001  -1.1724   0.0000   0.0000   0.0000   0.3735
   3.500   0.9285   0.00699   0.00243  -0.1164  0.5727  1.0001  -1.2018   0.0000   0.0000   0.0000   0.3693
   3.750   0.9541   0.00709   0.00251  -0.1160  0.5642  1.0001  -1.2362   0.0000   0.0000   0.0000   0.3653
   4.000   0.9793   0.00721   0.00260  -0.1156  0.5554  1.0001  -1.2714   0.0000   0.0000   0.0000   0.3614
   4.250   1.0043   0.00735   0.00270  -0.1151  0.5457  1.0001  -1.3066   0.0000   0.0000   0.0000   0.3577
   4.500   1.0292   0.00749   0.00281  -0.1147  0.5357  1.0001  -1.3420   0.0000   0.0000   0.0000   0.3542
   4.750   1.0542   0.00765   0.00294  -0.1142  0.5259  1.0001  -1.3775   0.0000   0.0000   0.0000   0.3508
   5.000   1.0788   0.00781   0.00308  -0.1137  0.5163  1.0001  -1.4130   0.0000   0.0000   0.0000   0.3476
   5.250   1.1031   0.00800   0.00324  -0.1132  0.5059  1.0001  -1.4510   0.0000   0.0000   0.0000   0.3444
   5.500   1.1271   0.00820   0.00341  -0.1126  0.4947  1.0001  -1.4899   0.0000   0.0000   0.0000   0.3414
   5.750   1.1510   0.00841   0.00359  -0.1120  0.4828  1.0001  -1.5289   0.0000   0.0000   0.0000   0.3385
   6.000   1.1735   0.00868   0.00381  -0.1112  0.4675  1.0001  -1.5670   0.0000   0.0000   0.0000   0.3356
   6.250   1.1943   0.00903   0.00408  -0.1101  0.4489  1.0001  -1.6050   0.0000   0.0000   0.0000   0.3327
   6.750   1.2353   0.00974   0.00466  -0.1078  0.4137  1.0001  -1.8010   0.0000   0.0000   0.0000   0.3271
   7.000   1.2523   0.01024   0.00505  -0.1061  0.3886  1.0001  -1.9097   0.0000   0.0000   0.0000   0.3242
   7.250   1.2653   0.01090   0.00555  -0.1037  0.3564  1.0001  -2.0165   0.0000   0.0000   0.0000   0.3211
   7.500   1.2757   0.01163   0.00611  -0.1009  0.3243  1.0001  -2.1182   0.0000   0.0000   0.0000   0.3179
   7.750   1.2819   0.01240   0.00672  -0.0974  0.2942  1.0001  -2.2100   0.0000   0.0000   0.0000   0.3144
   8.000   1.2893   0.01320   0.00739  -0.0942  0.2674  1.0001  -2.3062   0.0000   0.0000   0.0000   0.3111
   8.250   1.2972   0.01407   0.00815  -0.0914  0.2442  1.0001  -2.4043   0.0000   0.0000   0.0000   0.3081
   8.500   1.3045   0.01508   0.00904  -0.0888  0.2205  1.0001  -2.5016   0.0000   0.0000   0.0000   0.3053
   8.750   1.3118   0.01621   0.01006  -0.0865  0.1984  1.0001  -2.5998   0.0000   0.0000   0.0000   0.3028
   9.000   1.3214   0.01731   0.01109  -0.0847  0.1815  1.0001  -2.7052   0.0000   0.0000   0.0000   0.3005
   9.250   1.3324   0.01839   0.01211  -0.0832  0.1665  1.0001  -2.8163   0.0000   0.0000   0.0000   0.2984
   9.500   1.3420   0.01960   0.01326  -0.0816  0.1506  1.0001  -2.9240   0.0000   0.0000   0.0000   0.2963
   9.750   1.3506   0.02091   0.01450  -0.0799  0.1334  1.0001  -3.0295   0.0000   0.0000   0.0000   0.2943
  10.000   1.3565   0.02243   0.01591  -0.0781  0.1133  1.0001  -3.1278   0.0000   0.0000   0.0000   0.2923
  10.250   1.3599   0.02413   0.01750  -0.0761  0.0926  1.0001  -3.2186   0.0000   0.0000   0.0000   0.2902
  10.500   1.3644   0.02577   0.01906  -0.0743  0.0759  1.0001  -3.3135   0.0000   0.0000   0.0000   0.2882
  10.750   1.3712   0.02726   0.02050  -0.0727  0.0650  1.0001  -3.4169   0.0000   0.0000   0.0000   0.2863
  11.000   1.3792   0.02867   0.02190  -0.0712  0.0569  1.0001  -3.5250   0.0000   0.0000   0.0000   0.2845
  11.250   1.3881   0.03003   0.02325  -0.0699  0.0508  1.0001  -3.6371   0.0000   0.0000   0.0000   0.2827
  11.500   1.3970   0.03140   0.02462  -0.0686  0.0451  1.0001  -3.7501   0.0000   0.0000   0.0000   0.2810
  11.750   1.4049   0.03286   0.02607  -0.0672  0.0390  1.0001  -3.8621   0.0000   0.0000   0.0000   0.2793
  12.000   1.4123   0.03436   0.02757  -0.0659  0.0332  1.0001  -3.9808   0.0000   0.0000   0.0000   0.2776
  12.250   1.4198   0.03592   0.02913  -0.0647  0.0285  1.0001  -4.1002   0.0000   0.0000   0.0000   0.2760
  12.500   1.4273   0.03749   0.03071  -0.0635  0.0252  1.0001  -4.2212   0.0000   0.0000   0.0000   0.2745
  12.750   1.4349   0.03910   0.03234  -0.0624  0.0229  1.0001  -4.3431   0.0000   0.0000   0.0000   0.2730
  13.000   1.4432   0.04068   0.03396  -0.0614  0.0209  1.0001  -4.4685   0.0000   0.0000   0.0000   0.2715
  13.250   1.4510   0.04233   0.03564  -0.0604  0.0195  1.0001  -4.5930   0.0000   0.0000   0.0000   0.2701
  13.500   1.4591   0.04399   0.03735  -0.0594  0.0181  1.0001  -4.7192   0.0000   0.0000   0.0000   0.2687
  13.750   1.4660   0.04578   0.03917  -0.0585  0.0171  1.0001  -4.8424   0.0000   0.0000   0.0000   0.2674
  14.000   1.4738   0.04752   0.04096  -0.0577  0.0163  1.0001  -4.9693   0.0000   0.0000   0.0000   0.2661
  14.250   1.4809   0.04935   0.04284  -0.0569  0.0155  1.0001  -5.0947   0.0000   0.0000   0.0000   0.2649
  14.500   1.4872   0.05127   0.04481  -0.0561  0.0149  1.0001  -5.2192   0.0000   0.0000   0.0000   0.2636
  14.750   1.4926   0.05333   0.04691  -0.0553  0.0143  1.0001  -5.3487   0.0000   0.0000   0.0000   0.2625
  15.000   1.4983   0.05539   0.04904  -0.0547  0.0139  1.0001  -5.4797   0.0000   0.0000   0.0000   0.2613
  15.250   1.5038   0.05748   0.05119  -0.0540  0.0136  1.0001  -5.6112   0.0000   0.0000   0.0000   0.2602
  15.500   1.5088   0.05965   0.05343  -0.0534  0.0133  1.0001  -5.7411   0.0000   0.0000   0.0000   0.2591
  15.750   1.5132   0.06194   0.05578  -0.0529  0.0130  1.0001  -5.8685   0.0000   0.0000   0.0000   0.2581
  16.000   1.5167   0.06434   0.05825  -0.0524  0.0127  1.0001  -5.9931   0.0000   0.0000   0.0000   0.2571
  16.250   1.5196   0.06684   0.06082  -0.0519  0.0125  1.0001  -6.1218   0.0000   0.0000   0.0000   0.2562
  16.500   1.5216   0.06947   0.06351  -0.0515  0.0122  1.0001  -6.2484   0.0000   0.0000   0.0000   0.2553
  16.750   1.5228   0.07224   0.06635  -0.0512  0.0120  1.0001  -6.3706   0.0000   0.0000   0.0000   0.2545
  17.000   1.5229   0.07519   0.06938  -0.0509  0.0118  1.0001  -6.4861   0.0000   0.0000   0.0000   0.2537
  17.250   1.5213   0.07837   0.07263  -0.0508  0.0116  1.0001  -6.5918   0.0000   0.0000   0.0000   0.2530
  17.500   1.5210   0.08145   0.07579  -0.0507  0.0115  1.0001  -6.7050   0.0000   0.0000   0.0000   0.2524
  17.750   1.5212   0.08449   0.07892  -0.0507  0.0113  1.0001  -6.8222   0.0000   0.0000   0.0000   0.2518
  18.000   1.5207   0.08766   0.08217  -0.0508  0.0112  1.0001  -6.9498   0.0000   0.0000   0.0000   0.2513
  18.250   1.5196   0.09095   0.08555  -0.0510  0.0110  1.0001  -7.0859   0.0000   0.0000   0.0000   0.2508
  18.500   1.5176   0.09437   0.08906  -0.0512  0.0109  1.0001  -7.2162   0.0000   0.0000   0.0000   0.2504
  18.750   1.5150   0.09792   0.09270  -0.0516  0.0107  1.0001  -7.3414   0.0000   0.0000   0.0000   0.2501
  19.000   1.5120   0.10157   0.09644  -0.0521  0.0106  1.0001  -7.4628   0.0000   0.0000   0.0000   0.2499
  19.250   1.5086   0.10532   0.10028  -0.0528  0.0105  1.0001  -7.5804   0.0000   0.0000   0.0000   0.2497
  19.500   1.5047   0.10916   0.10421  -0.0535  0.0104  1.0001  -7.6930   0.0000   0.0000   0.0000   0.2497
  19.750   1.5005   0.11308   0.10822  -0.0544  0.0103  1.0001  -7.8024   0.0000   0.0000   0.0000   0.2497
  20.000   1.4962   0.11706   0.11228  -0.0554  0.0102  1.0001  -7.9095   0.0000   0.0000   0.0000   0.2499


