xflr5 v6.61

 Calculated polar for: QX0026 v32

 1 1 Reynolds number fixed          Mach number fixed         

 xtrf =   1.000 (top)        1.000 (bottom)
 Mach =   0.000     Re =     0.540 e 6     Ncrit =   5.000

  alpha     CL        CD       CDp       Cm    Top Xtr Bot Xtr   Cpmin    Chinge    XCp    
 ------- -------- --------- --------- -------- ------- ------- -------- --------- ---------
 -10.000  -0.5698   0.01985   0.01374  -0.1078  0.7329  0.0104  -7.8860   0.0000   0.0000   0.0000   0.0440
  -9.750  -0.5466   0.01913   0.01289  -0.1076  0.7310  0.0108  -7.5979   0.0000   0.0000   0.0000   0.0363
  -9.500  -0.5227   0.01845   0.01210  -0.1074  0.7288  0.0111  -7.3104   0.0000   0.0000   0.0000   0.0276
  -9.250  -0.4985   0.01780   0.01134  -0.1073  0.7265  0.0115  -7.0243   0.0000   0.0000   0.0000   0.0180
  -9.000  -0.4743   0.01715   0.01062  -0.1071  0.7242  0.0120  -6.7352   0.0000   0.0000   0.0000   0.0073
  -8.750  -0.4492   0.01666   0.01005  -0.1070  0.7222  0.0124  -6.4555   0.0000   0.0000   0.0000  -0.0053
  -8.500  -0.4236   0.01620   0.00949  -0.1069  0.7204  0.0130  -6.1881   0.0000   0.0000   0.0000  -0.0196
  -8.250  -0.3978   0.01573   0.00896  -0.1068  0.7182  0.0136  -5.9271   0.0000   0.0000   0.0000  -0.0361
  -8.000  -0.3717   0.01531   0.00845  -0.1068  0.7162  0.0143  -5.6681   0.0000   0.0000   0.0000  -0.0552
  -7.750  -0.3458   0.01487   0.00798  -0.1067  0.7142  0.0152  -5.4044   0.0000   0.0000   0.0000  -0.0770
  -7.500  -0.3193   0.01454   0.00758  -0.1067  0.7124  0.0161  -5.1418   0.0000   0.0000   0.0000  -0.1032
  -7.250  -0.2926   0.01421   0.00716  -0.1066  0.7106  0.0171  -4.8896   0.0000   0.0000   0.0000  -0.1342
  -7.000  -0.2661   0.01382   0.00674  -0.1066  0.7086  0.0180  -4.6422   0.0000   0.0000   0.0000  -0.1713
  -6.750  -0.2392   0.01350   0.00639  -0.1066  0.7066  0.0191  -4.3936   0.0000   0.0000   0.0000  -0.2176
  -6.500  -0.2121   0.01321   0.00604  -0.1066  0.7046  0.0203  -4.1514   0.0000   0.0000   0.0000  -0.2763
  -6.250  -0.1851   0.01290   0.00570  -0.1066  0.7028  0.0217  -3.9128   0.0000   0.0000   0.0000  -0.3518
  -6.000  -0.1578   0.01265   0.00540  -0.1067  0.7011  0.0234  -3.6763   0.0000   0.0000   0.0000  -0.4544
  -5.750  -0.1304   0.01240   0.00509  -0.1067  0.6995  0.0251  -3.4479   0.0000   0.0000   0.0000  -0.6003
  -5.500  -0.1030   0.01213   0.00483  -0.1067  0.6973  0.0271  -3.2214   0.0000   0.0000   0.0000  -0.8246
  -5.250  -0.0755   0.01190   0.00456  -0.1068  0.6950  0.0293  -3.0014   0.0000   0.0000   0.0000  -1.2142
  -5.000  -0.0480   0.01167   0.00431  -0.1068  0.6928  0.0318  -2.7858   0.0000   0.0000   0.0000  -2.0513
  -4.750  -0.0204   0.01145   0.00407  -0.1069  0.6908  0.0347  -2.5755   0.0000   0.0000   0.0000  -5.1631
  -4.500   0.0074   0.01126   0.00385  -0.1070  0.6891  0.0385  -2.3698   0.0000   0.0000   0.0000  15.1595
  -4.250   0.0352   0.01107   0.00366  -0.1070  0.6872  0.0430  -2.1695   0.0000   0.0000   0.0000   3.3725
  -4.000   0.0630   0.01088   0.00348  -0.1071  0.6850  0.0488  -1.9870   0.0000   0.0000   0.0000   1.9930
  -3.750   0.0908   0.01069   0.00331  -0.1072  0.6829  0.0572  -1.8135   0.0000   0.0000   0.0000   1.4583
  -3.500   0.1186   0.01050   0.00314  -0.1073  0.6810  0.0681  -1.6448   0.0000   0.0000   0.0000   1.1742
  -3.250   0.1464   0.01032   0.00300  -0.1074  0.6793  0.0832  -1.4840   0.0000   0.0000   0.0000   0.9981
  -3.000   0.1741   0.01014   0.00287  -0.1075  0.6775  0.1027  -1.3464   0.0000   0.0000   0.0000   0.8783
  -2.750   0.2018   0.00995   0.00277  -0.1076  0.6751  0.1263  -1.2177   0.0000   0.0000   0.0000   0.7916
  -2.500   0.2296   0.00978   0.00267  -0.1077  0.6725  0.1516  -1.0922   0.0000   0.0000   0.0000   0.7257
  -2.250   0.2573   0.00961   0.00257  -0.1078  0.6701  0.1794  -0.9773   0.0000   0.0000   0.0000   0.6740
  -2.000   0.2850   0.00944   0.00248  -0.1079  0.6681  0.2124  -0.8683   0.0000   0.0000   0.0000   0.6325
  -1.750   0.3125   0.00926   0.00243  -0.1080  0.6659  0.2540  -0.7624   0.0000   0.0000   0.0000   0.5984
  -1.500   0.3402   0.00910   0.00240  -0.1081  0.6634  0.2942  -0.7773   0.0000   0.0000   0.0000   0.5698
  -1.250   0.3678   0.00894   0.00237  -0.1082  0.6609  0.3376  -0.7934   0.0000   0.0000   0.0000   0.5454
  -1.000   0.3956   0.00882   0.00233  -0.1083  0.6585  0.3745  -0.8097   0.0000   0.0000   0.0000   0.5243
  -0.750   0.4233   0.00871   0.00231  -0.1084  0.6561  0.4115  -0.8260   0.0000   0.0000   0.0000   0.5060
  -0.500   0.4510   0.00861   0.00231  -0.1085  0.6531  0.4458  -0.8421   0.0000   0.0000   0.0000   0.4899
  -0.250   0.4786   0.00850   0.00231  -0.1085  0.6505  0.4840  -0.8589   0.0000   0.0000   0.0000   0.4757
   0.000   0.5063   0.00842   0.00231  -0.1085  0.6480  0.5207  -0.8770   0.0000   0.0000   0.0000   0.4630
   0.500   0.5607   0.00822   0.00235  -0.1085  0.6422  0.6046  -0.9128   0.0000   0.0000   0.0000   0.4412
   0.750   0.5878   0.00813   0.00238  -0.1083  0.6390  0.6461  -0.9306   0.0000   0.0000   0.0000   0.4317
   1.000   0.6144   0.00805   0.00241  -0.1081  0.6364  0.6929  -0.9486   0.0000   0.0000   0.0000   0.4230
   1.250   0.6406   0.00795   0.00247  -0.1078  0.6333  0.7440  -0.9681   0.0000   0.0000   0.0000   0.4150
   1.500   0.6664   0.00784   0.00253  -0.1073  0.6297  0.7949  -0.9874   0.0000   0.0000   0.0000   0.4074
   1.750   0.6923   0.00775   0.00257  -0.1068  0.6263  0.8460  -1.0068   0.0000   0.0000   0.0000   0.4004
   2.000   0.7252   0.00764   0.00263  -0.1078  0.6228  0.9149  -1.0302   0.0000   0.0000   0.0000   0.3944
   2.250   0.7826   0.00765   0.00268  -0.1144  0.6186  0.9781  -1.0693   0.0000   0.0000   0.0000   0.3917
   2.500   0.8192   0.00773   0.00272  -0.1165  0.6146  1.0001  -1.0974   0.0000   0.0000   0.0000   0.3874
   2.750   0.8453   0.00779   0.00279  -0.1162  0.6102  1.0001  -1.1194   0.0000   0.0000   0.0000   0.3824
   3.000   0.8713   0.00786   0.00283  -0.1159  0.6054  1.0001  -1.1432   0.0000   0.0000   0.0000   0.3777
   3.250   0.8973   0.00793   0.00289  -0.1157  0.6005  1.0001  -1.1678   0.0000   0.0000   0.0000   0.3732
   3.500   0.9231   0.00801   0.00296  -0.1153  0.5946  1.0001  -1.1972   0.0000   0.0000   0.0000   0.3690
   3.750   0.9489   0.00810   0.00303  -0.1150  0.5878  1.0001  -1.2310   0.0000   0.0000   0.0000   0.3649
   4.000   0.9743   0.00820   0.00311  -0.1146  0.5802  1.0001  -1.2664   0.0000   0.0000   0.0000   0.3611
   4.250   0.9997   0.00830   0.00320  -0.1143  0.5719  1.0001  -1.3019   0.0000   0.0000   0.0000   0.3574
   4.500   1.0251   0.00841   0.00330  -0.1139  0.5633  1.0001  -1.3376   0.0000   0.0000   0.0000   0.3539
   4.750   1.0501   0.00855   0.00342  -0.1134  0.5544  1.0001  -1.3732   0.0000   0.0000   0.0000   0.3505
   5.000   1.0749   0.00869   0.00355  -0.1130  0.5452  1.0001  -1.4087   0.0000   0.0000   0.0000   0.3473
   5.250   1.0995   0.00885   0.00369  -0.1125  0.5361  1.0001  -1.4466   0.0000   0.0000   0.0000   0.3441
   5.500   1.1240   0.00902   0.00385  -0.1120  0.5266  1.0001  -1.4858   0.0000   0.0000   0.0000   0.3411
   5.750   1.1478   0.00922   0.00403  -0.1114  0.5161  1.0001  -1.5247   0.0000   0.0000   0.0000   0.3382
   6.000   1.1711   0.00944   0.00423  -0.1107  0.5053  1.0001  -1.5633   0.0000   0.0000   0.0000   0.3354
   6.250   1.1942   0.00967   0.00444  -0.1099  0.4934  1.0001  -1.6031   0.0000   0.0000   0.0000   0.3326
   6.500   1.2156   0.00996   0.00469  -0.1089  0.4775  1.0001  -1.6856   0.0000   0.0000   0.0000   0.3298
   6.750   1.2350   0.01034   0.00500  -0.1076  0.4595  1.0001  -1.7962   0.0000   0.0000   0.0000   0.3270
   7.000   1.2541   0.01073   0.00533  -0.1062  0.4414  1.0001  -1.9080   0.0000   0.0000   0.0000   0.3242
   7.250   1.2719   0.01116   0.00570  -0.1046  0.4232  1.0001  -2.0253   0.0000   0.0000   0.0000   0.3214
   7.500   1.2862   0.01171   0.00616  -0.1025  0.3993  1.0001  -2.1373   0.0000   0.0000   0.0000   0.3184
   7.750   1.2959   0.01239   0.00671  -0.0995  0.3720  1.0001  -2.2387   0.0000   0.0000   0.0000   0.3152
   8.000   1.3005   0.01321   0.00738  -0.0958  0.3428  1.0001  -2.3279   0.0000   0.0000   0.0000   0.3117
   8.250   1.3041   0.01420   0.00821  -0.0922  0.3121  1.0001  -2.4148   0.0000   0.0000   0.0000   0.3083
   8.750   1.3123   0.01659   0.01033  -0.0863  0.2570  1.0001  -2.5920   0.0000   0.0000   0.0000   0.3026
   9.000   1.3175   0.01794   0.01157  -0.0840  0.2323  1.0001  -2.6846   0.0000   0.0000   0.0000   0.3001
   9.250   1.3238   0.01934   0.01286  -0.0820  0.2107  1.0001  -2.7807   0.0000   0.0000   0.0000   0.2979
   9.500   1.3322   0.02064   0.01410  -0.0804  0.1935  1.0001  -2.8841   0.0000   0.0000   0.0000   0.2958
   9.750   1.3410   0.02194   0.01534  -0.0788  0.1783  1.0001  -2.9897   0.0000   0.0000   0.0000   0.2938
  10.000   1.3493   0.02330   0.01664  -0.0772  0.1625  1.0001  -3.0944   0.0000   0.0000   0.0000   0.2918
  10.250   1.3569   0.02470   0.01799  -0.0756  0.1471  1.0001  -3.1982   0.0000   0.0000   0.0000   0.2899
  10.500   1.3626   0.02625   0.01946  -0.0739  0.1288  1.0001  -3.2970   0.0000   0.0000   0.0000   0.2879
  10.750   1.3661   0.02799   0.02109  -0.0720  0.1088  1.0001  -3.3888   0.0000   0.0000   0.0000   0.2860
  11.000   1.3680   0.02985   0.02286  -0.0700  0.0898  1.0001  -3.4759   0.0000   0.0000   0.0000   0.2840
  11.250   1.3709   0.03167   0.02461  -0.0682  0.0750  1.0001  -3.5664   0.0000   0.0000   0.0000   0.2821
  11.500   1.3759   0.03335   0.02626  -0.0667  0.0648  1.0001  -3.6646   0.0000   0.0000   0.0000   0.2803
  11.750   1.3816   0.03500   0.02789  -0.0652  0.0568  1.0001  -3.7659   0.0000   0.0000   0.0000   0.2786
  12.000   1.3883   0.03661   0.02950  -0.0639  0.0503  1.0001  -3.8766   0.0000   0.0000   0.0000   0.2769
  12.250   1.3953   0.03823   0.03113  -0.0627  0.0444  1.0001  -3.9921   0.0000   0.0000   0.0000   0.2754
  12.500   1.4018   0.03994   0.03285  -0.0615  0.0386  1.0001  -4.1065   0.0000   0.0000   0.0000   0.2738
  12.750   1.4082   0.04170   0.03461  -0.0604  0.0333  1.0001  -4.2214   0.0000   0.0000   0.0000   0.2723
  13.000   1.4143   0.04351   0.03643  -0.0593  0.0292  1.0001  -4.3357   0.0000   0.0000   0.0000   0.2709
  13.250   1.4203   0.04538   0.03832  -0.0583  0.0262  1.0001  -4.4502   0.0000   0.0000   0.0000   0.2695
  13.500   1.4263   0.04728   0.04027  -0.0574  0.0239  1.0001  -4.5650   0.0000   0.0000   0.0000   0.2682
  13.750   1.4325   0.04920   0.04222  -0.0565  0.0223  1.0001  -4.6809   0.0000   0.0000   0.0000   0.2669
  14.000   1.4383   0.05118   0.04426  -0.0557  0.0208  1.0001  -4.7959   0.0000   0.0000   0.0000   0.2656
  14.250   1.4432   0.05328   0.04641  -0.0549  0.0198  1.0001  -4.9079   0.0000   0.0000   0.0000   0.2644
  14.500   1.4492   0.05532   0.04852  -0.0542  0.0189  1.0001  -5.0241   0.0000   0.0000   0.0000   0.2632
  14.750   1.4541   0.05749   0.05076  -0.0535  0.0180  1.0001  -5.1425   0.0000   0.0000   0.0000   0.2621
  15.000   1.4578   0.05981   0.05313  -0.0528  0.0173  1.0001  -5.2611   0.0000   0.0000   0.0000   0.2610
  15.250   1.4610   0.06224   0.05562  -0.0523  0.0168  1.0001  -5.3768   0.0000   0.0000   0.0000   0.2600
  15.500   1.4652   0.06460   0.05806  -0.0518  0.0162  1.0001  -5.4975   0.0000   0.0000   0.0000   0.2590
  15.750   1.4685   0.06707   0.06061  -0.0513  0.0157  1.0001  -5.6151   0.0000   0.0000   0.0000   0.2581
  16.000   1.4711   0.06967   0.06328  -0.0510  0.0153  1.0001  -5.7296   0.0000   0.0000   0.0000   0.2572
  16.250   1.4728   0.07241   0.06610  -0.0506  0.0150  1.0001  -5.8402   0.0000   0.0000   0.0000   0.2564
  16.500   1.4735   0.07531   0.06907  -0.0504  0.0146  1.0001  -5.9538   0.0000   0.0000   0.0000   0.2556
  16.750   1.4730   0.07838   0.07222  -0.0502  0.0144  1.0001  -6.0611   0.0000   0.0000   0.0000   0.2549
  17.250   1.4707   0.08485   0.07886  -0.0502  0.0139  1.0001  -6.2659   0.0000   0.0000   0.0000   0.2538
  17.500   1.4699   0.08811   0.08221  -0.0503  0.0137  1.0001  -6.3700   0.0000   0.0000   0.0000   0.2533
  17.750   1.4685   0.09148   0.08569  -0.0505  0.0135  1.0001  -6.4697   0.0000   0.0000   0.0000   0.2529
  18.000   1.4664   0.09497   0.08927  -0.0508  0.0134  1.0001  -6.5653   0.0000   0.0000   0.0000   0.2525
  18.250   1.4640   0.09855   0.09295  -0.0512  0.0132  1.0001  -6.6612   0.0000   0.0000   0.0000   0.2522
  18.500   1.4614   0.10220   0.09669  -0.0518  0.0130  1.0001  -6.7782   0.0000   0.0000   0.0000   0.2521
  18.750   1.4586   0.10592   0.10050  -0.0524  0.0127  1.0001  -6.8930   0.0000   0.0000   0.0000   0.2520
  19.000   1.4554   0.10971   0.10438  -0.0532  0.0126  1.0001  -7.0043   0.0000   0.0000   0.0000   0.2519
  19.250   1.4518   0.11359   0.10836  -0.0541  0.0124  1.0001  -7.1118   0.0000   0.0000   0.0000   0.2520
  19.500   1.4479   0.11759   0.11244  -0.0552  0.0122  1.0001  -7.2142   0.0000   0.0000   0.0000   0.2522
  19.750   1.4435   0.12169   0.11662  -0.0564  0.0120  1.0001  -7.3111   0.0000   0.0000   0.0000   0.2525
  20.000   1.4387   0.12588   0.12090  -0.0577  0.0119  1.0001  -7.4023   0.0000   0.0000   0.0000   0.2530


