xflr5 v6.61

 Calculated polar for: QX0026 v32

 1 1 Reynolds number fixed          Mach number fixed         

 xtrf =   1.000 (top)        1.000 (bottom)
 Mach =   0.000     Re =     0.480 e 6     Ncrit =   5.000

  alpha     CL        CD       CDp       Cm    Top Xtr Bot Xtr   Cpmin    Chinge    XCp    
 ------- -------- --------- --------- -------- ------- ------- -------- --------- ---------
 -10.000  -0.5638   0.02098   0.01484  -0.1083  0.7376  0.0109  -7.7833   0.0000   0.0000   0.0000   0.0410
  -9.750  -0.5412   0.02015   0.01385  -0.1081  0.7353  0.0113  -7.5107   0.0000   0.0000   0.0000   0.0334
  -9.500  -0.5186   0.01933   0.01291  -0.1078  0.7333  0.0116  -7.2374   0.0000   0.0000   0.0000   0.0252
  -9.000  -0.4703   0.01808   0.01149  -0.1076  0.7292  0.0125  -6.6555   0.0000   0.0000   0.0000   0.0042
  -8.750  -0.4454   0.01752   0.01085  -0.1074  0.7267  0.0130  -6.3844   0.0000   0.0000   0.0000  -0.0085
  -8.500  -0.4204   0.01698   0.01020  -0.1073  0.7245  0.0136  -6.1303   0.0000   0.0000   0.0000  -0.0227
  -8.250  -0.3948   0.01650   0.00960  -0.1072  0.7226  0.0143  -5.8770   0.0000   0.0000   0.0000  -0.0392
  -8.000  -0.3695   0.01600   0.00905  -0.1071  0.7210  0.0150  -5.6155   0.0000   0.0000   0.0000  -0.0579
  -7.750  -0.3432   0.01562   0.00861  -0.1071  0.7190  0.0159  -5.3520   0.0000   0.0000   0.0000  -0.0805
  -7.500  -0.3169   0.01522   0.00814  -0.1070  0.7168  0.0169  -5.1010   0.0000   0.0000   0.0000  -0.1069
  -7.250  -0.2908   0.01479   0.00765  -0.1069  0.7147  0.0178  -4.8569   0.0000   0.0000   0.0000  -0.1376
  -7.000  -0.2644   0.01442   0.00723  -0.1069  0.7127  0.0188  -4.6082   0.0000   0.0000   0.0000  -0.1752
  -6.750  -0.2377   0.01410   0.00683  -0.1069  0.7110  0.0199  -4.3656   0.0000   0.0000   0.0000  -0.2217
  -6.500  -0.2108   0.01377   0.00644  -0.1069  0.7093  0.0212  -4.1277   0.0000   0.0000   0.0000  -0.2805
  -6.250  -0.1838   0.01346   0.00612  -0.1069  0.7072  0.0228  -3.8881   0.0000   0.0000   0.0000  -0.3572
  -6.000  -0.1566   0.01319   0.00579  -0.1069  0.7052  0.0244  -3.6573   0.0000   0.0000   0.0000  -0.4613
  -5.750  -0.1296   0.01287   0.00546  -0.1069  0.7033  0.0262  -3.4302   0.0000   0.0000   0.0000  -0.6076
  -5.500  -0.1022   0.01263   0.00516  -0.1069  0.7014  0.0283  -3.2066   0.0000   0.0000   0.0000  -0.8356
  -5.250  -0.0749   0.01237   0.00486  -0.1070  0.6997  0.0306  -2.9885   0.0000   0.0000   0.0000  -1.2274
  -5.000  -0.0474   0.01214   0.00461  -0.1070  0.6974  0.0331  -2.7755   0.0000   0.0000   0.0000  -2.0836
  -4.750  -0.0199   0.01190   0.00437  -0.1070  0.6950  0.0365  -2.5661   0.0000   0.0000   0.0000  -5.2921
  -4.500   0.0077   0.01168   0.00413  -0.1071  0.6928  0.0404  -2.3622   0.0000   0.0000   0.0000  14.6439
  -4.250   0.0353   0.01148   0.00391  -0.1072  0.6910  0.0451  -2.1635   0.0000   0.0000   0.0000   3.3644
  -4.000   0.0631   0.01129   0.00371  -0.1072  0.6894  0.0516  -1.9834   0.0000   0.0000   0.0000   1.9927
  -3.750   0.0908   0.01109   0.00354  -0.1073  0.6874  0.0605  -1.8109   0.0000   0.0000   0.0000   1.4594
  -3.500   0.1185   0.01090   0.00338  -0.1074  0.6851  0.0726  -1.6431   0.0000   0.0000   0.0000   1.1759
  -3.250   0.1461   0.01070   0.00324  -0.1075  0.6830  0.0891  -1.4832   0.0000   0.0000   0.0000   1.0000
  -3.000   0.1738   0.01050   0.00310  -0.1076  0.6811  0.1105  -1.3458   0.0000   0.0000   0.0000   0.8801
  -2.750   0.2015   0.01032   0.00298  -0.1077  0.6793  0.1349  -1.2173   0.0000   0.0000   0.0000   0.7929
  -2.500   0.2292   0.01014   0.00287  -0.1078  0.6771  0.1616  -1.0920   0.0000   0.0000   0.0000   0.7269
  -2.250   0.2567   0.00996   0.00279  -0.1079  0.6743  0.1918  -0.9777   0.0000   0.0000   0.0000   0.6752
  -2.000   0.2842   0.00977   0.00272  -0.1080  0.6718  0.2291  -0.8692   0.0000   0.0000   0.0000   0.6336
  -1.750   0.3117   0.00959   0.00265  -0.1080  0.6697  0.2720  -0.7634   0.0000   0.0000   0.0000   0.5994
  -1.500   0.3394   0.00944   0.00260  -0.1081  0.6678  0.3139  -0.7763   0.0000   0.0000   0.0000   0.5706
  -1.250   0.3669   0.00929   0.00259  -0.1082  0.6654  0.3563  -0.7923   0.0000   0.0000   0.0000   0.5462
  -1.000   0.3946   0.00918   0.00257  -0.1083  0.6627  0.3921  -0.8084   0.0000   0.0000   0.0000   0.5250
  -0.750   0.4222   0.00906   0.00255  -0.1083  0.6599  0.4297  -0.8246   0.0000   0.0000   0.0000   0.5066
  -0.500   0.4498   0.00895   0.00252  -0.1084  0.6575  0.4666  -0.8409   0.0000   0.0000   0.0000   0.4904
  -0.250   0.4772   0.00885   0.00253  -0.1084  0.6549  0.5061  -0.8576   0.0000   0.0000   0.0000   0.4761
   0.000   0.5046   0.00875   0.00255  -0.1084  0.6520  0.5430  -0.8755   0.0000   0.0000   0.0000   0.4633
   0.250   0.5318   0.00865   0.00257  -0.1083  0.6493  0.5869  -0.8933   0.0000   0.0000   0.0000   0.4518
   0.500   0.5588   0.00855   0.00258  -0.1082  0.6468  0.6317  -0.9112   0.0000   0.0000   0.0000   0.4414
   0.750   0.5855   0.00847   0.00262  -0.1080  0.6436  0.6757  -0.9288   0.0000   0.0000   0.0000   0.4318
   1.000   0.6117   0.00836   0.00267  -0.1076  0.6403  0.7253  -0.9465   0.0000   0.0000   0.0000   0.4230
   1.250   0.6375   0.00825   0.00271  -0.1072  0.6375  0.7776  -0.9659   0.0000   0.0000   0.0000   0.4148
   1.500   0.6633   0.00815   0.00275  -0.1066  0.6347  0.8288  -0.9853   0.0000   0.0000   0.0000   0.4072
   1.750   0.6916   0.00804   0.00282  -0.1066  0.6309  0.8895  -1.0059   0.0000   0.0000   0.0000   0.4003
   2.000   0.7473   0.00801   0.00286  -0.1127  0.6271  0.9607  -1.0419   0.0000   0.0000   0.0000   0.3967
   2.250   0.7893   0.00807   0.00289  -0.1160  0.6237  0.9983  -1.0727   0.0000   0.0000   0.0000   0.3925
   2.500   0.8171   0.00814   0.00296  -0.1161  0.6193  1.0001  -1.0956   0.0000   0.0000   0.0000   0.3873
   2.750   0.8431   0.00820   0.00300  -0.1158  0.6152  1.0001  -1.1176   0.0000   0.0000   0.0000   0.3823
   3.000   0.8692   0.00827   0.00306  -0.1156  0.6106  1.0001  -1.1414   0.0000   0.0000   0.0000   0.3776
   3.250   0.8952   0.00834   0.00312  -0.1153  0.6057  1.0001  -1.1661   0.0000   0.0000   0.0000   0.3731
   3.500   0.9212   0.00842   0.00319  -0.1150  0.6006  1.0001  -1.1955   0.0000   0.0000   0.0000   0.3689
   3.750   0.9469   0.00850   0.00325  -0.1147  0.5944  1.0001  -1.2291   0.0000   0.0000   0.0000   0.3648
   4.000   0.9725   0.00859   0.00334  -0.1143  0.5871  1.0001  -1.2645   0.0000   0.0000   0.0000   0.3610
   4.250   0.9979   0.00869   0.00342  -0.1140  0.5795  1.0001  -1.3000   0.0000   0.0000   0.0000   0.3573
   4.500   1.0232   0.00880   0.00352  -0.1135  0.5713  1.0001  -1.3356   0.0000   0.0000   0.0000   0.3538
   4.750   1.0484   0.00892   0.00363  -0.1132  0.5627  1.0001  -1.3713   0.0000   0.0000   0.0000   0.3504
   5.000   1.0733   0.00906   0.00376  -0.1127  0.5537  1.0001  -1.4070   0.0000   0.0000   0.0000   0.3472
   5.250   1.0979   0.00921   0.00390  -0.1122  0.5445  1.0001  -1.4446   0.0000   0.0000   0.0000   0.3441
   5.500   1.1224   0.00938   0.00406  -0.1117  0.5357  1.0001  -1.4838   0.0000   0.0000   0.0000   0.3411
   5.750   1.1465   0.00956   0.00423  -0.1111  0.5259  1.0001  -1.5229   0.0000   0.0000   0.0000   0.3381
   6.000   1.1700   0.00976   0.00442  -0.1105  0.5152  1.0001  -1.5617   0.0000   0.0000   0.0000   0.3353
   6.250   1.1929   0.00999   0.00463  -0.1097  0.5043  1.0001  -1.6013   0.0000   0.0000   0.0000   0.3325
   6.500   1.2153   0.01025   0.00487  -0.1089  0.4913  1.0001  -1.6832   0.0000   0.0000   0.0000   0.3298
   6.750   1.2353   0.01059   0.00516  -0.1076  0.4742  1.0001  -1.7951   0.0000   0.0000   0.0000   0.3270
   7.000   1.2542   0.01097   0.00548  -0.1062  0.4563  1.0001  -1.9066   0.0000   0.0000   0.0000   0.3242
   7.250   1.2722   0.01138   0.00584  -0.1046  0.4384  1.0001  -2.0229   0.0000   0.0000   0.0000   0.3214
   7.500   1.2875   0.01189   0.00627  -0.1026  0.4186  1.0001  -2.1374   0.0000   0.0000   0.0000   0.3185
   7.750   1.2998   0.01249   0.00677  -0.1002  0.3935  1.0001  -2.2458   0.0000   0.0000   0.0000   0.3155
   8.000   1.3058   0.01322   0.00738  -0.0966  0.3675  1.0001  -2.3388   0.0000   0.0000   0.0000   0.3120
   8.250   1.3093   0.01416   0.00817  -0.0929  0.3379  1.0001  -2.4257   0.0000   0.0000   0.0000   0.3086
   8.500   1.3119   0.01530   0.00916  -0.0895  0.3076  1.0001  -2.5103   0.0000   0.0000   0.0000   0.3054
   8.750   1.3149   0.01659   0.01032  -0.0865  0.2793  1.0001  -2.5961   0.0000   0.0000   0.0000   0.3026
   9.000   1.3185   0.01803   0.01162  -0.0840  0.2537  1.0001  -2.6838   0.0000   0.0000   0.0000   0.3001
   9.250   1.3231   0.01952   0.01299  -0.0818  0.2287  1.0001  -2.7751   0.0000   0.0000   0.0000   0.2978
   9.500   1.3294   0.02096   0.01434  -0.0799  0.2087  1.0001  -2.8719   0.0000   0.0000   0.0000   0.2956
   9.750   1.3375   0.02231   0.01563  -0.0783  0.1921  1.0001  -2.9748   0.0000   0.0000   0.0000   0.2936
  10.000   1.3455   0.02368   0.01695  -0.0767  0.1766  1.0001  -3.0788   0.0000   0.0000   0.0000   0.2916
  10.250   1.3531   0.02509   0.01831  -0.0751  0.1611  1.0001  -3.1822   0.0000   0.0000   0.0000   0.2897
  10.500   1.3598   0.02658   0.01974  -0.0735  0.1452  1.0001  -3.2836   0.0000   0.0000   0.0000   0.2877
  10.750   1.3644   0.02823   0.02131  -0.0717  0.1269  1.0001  -3.3790   0.0000   0.0000   0.0000   0.2858
  11.000   1.3672   0.03003   0.02301  -0.0699  0.1068  1.0001  -3.4689   0.0000   0.0000   0.0000   0.2839
  11.250   1.3689   0.03194   0.02483  -0.0680  0.0885  1.0001  -3.5553   0.0000   0.0000   0.0000   0.2820
  11.500   1.3713   0.03382   0.02664  -0.0662  0.0746  1.0001  -3.6444   0.0000   0.0000   0.0000   0.2801
  11.750   1.3759   0.03556   0.02836  -0.0647  0.0646  1.0001  -3.7413   0.0000   0.0000   0.0000   0.2784
  12.000   1.3812   0.03730   0.03008  -0.0633  0.0567  1.0001  -3.8450   0.0000   0.0000   0.0000   0.2767
  12.250   1.3873   0.03901   0.03179  -0.0621  0.0501  1.0001  -3.9567   0.0000   0.0000   0.0000   0.2751
  12.500   1.3937   0.04074   0.03353  -0.0609  0.0441  1.0001  -4.0701   0.0000   0.0000   0.0000   0.2736
  12.750   1.3998   0.04253   0.03534  -0.0598  0.0383  1.0001  -4.1829   0.0000   0.0000   0.0000   0.2721
  13.000   1.4057   0.04438   0.03720  -0.0587  0.0333  1.0001  -4.2954   0.0000   0.0000   0.0000   0.2707
  13.250   1.4113   0.04630   0.03913  -0.0577  0.0294  1.0001  -4.4075   0.0000   0.0000   0.0000   0.2693
  13.500   1.4166   0.04828   0.04114  -0.0568  0.0265  1.0001  -4.5187   0.0000   0.0000   0.0000   0.2680
  13.750   1.4222   0.05027   0.04318  -0.0559  0.0244  1.0001  -4.6311   0.0000   0.0000   0.0000   0.2667
  14.000   1.4272   0.05235   0.04530  -0.0550  0.0228  1.0001  -4.7416   0.0000   0.0000   0.0000   0.2655
  14.250   1.4327   0.05442   0.04744  -0.0543  0.0214  1.0001  -4.8543   0.0000   0.0000   0.0000   0.2643
  14.500   1.4366   0.05668   0.04975  -0.0535  0.0203  1.0001  -4.9615   0.0000   0.0000   0.0000   0.2631
  14.750   1.4409   0.05894   0.05208  -0.0529  0.0195  1.0001  -5.0732   0.0000   0.0000   0.0000   0.2620
  15.000   1.4454   0.06122   0.05444  -0.0523  0.0187  1.0001  -5.1921   0.0000   0.0000   0.0000   0.2610
  15.250   1.4489   0.06364   0.05692  -0.0518  0.0180  1.0001  -5.3081   0.0000   0.0000   0.0000   0.2599
  15.500   1.4513   0.06620   0.05956  -0.0513  0.0174  1.0001  -5.4197   0.0000   0.0000   0.0000   0.2590
  15.750   1.4521   0.06899   0.06241  -0.0508  0.0169  1.0001  -5.5238   0.0000   0.0000   0.0000   0.2581
  16.000   1.4549   0.07161   0.06511  -0.0505  0.0164  1.0001  -5.6366   0.0000   0.0000   0.0000   0.2573
  16.250   1.4568   0.07436   0.06796  -0.0503  0.0160  1.0001  -5.7454   0.0000   0.0000   0.0000   0.2565
  16.500   1.4579   0.07726   0.07094  -0.0501  0.0156  1.0001  -5.8553   0.0000   0.0000   0.0000   0.2558
  16.750   1.4581   0.08027   0.07404  -0.0500  0.0153  1.0001  -5.9649   0.0000   0.0000   0.0000   0.2551
  17.000   1.4577   0.08342   0.07728  -0.0499  0.0150  1.0001  -6.0708   0.0000   0.0000   0.0000   0.2545
  17.250   1.4564   0.08673   0.08067  -0.0500  0.0148  1.0001  -6.1716   0.0000   0.0000   0.0000   0.2540
  17.500   1.4542   0.09020   0.08422  -0.0502  0.0145  1.0001  -6.2665   0.0000   0.0000   0.0000   0.2536
  17.750   1.4508   0.09387   0.08798  -0.0505  0.0143  1.0001  -6.3531   0.0000   0.0000   0.0000   0.2533
  18.000   1.4460   0.09779   0.09198  -0.0510  0.0141  1.0001  -6.4298   0.0000   0.0000   0.0000   0.2531
  18.250   1.4438   0.10139   0.09568  -0.0515  0.0139  1.0001  -6.5208   0.0000   0.0000   0.0000   0.2529
  18.500   1.4413   0.10506   0.09946  -0.0521  0.0138  1.0001  -6.6213   0.0000   0.0000   0.0000   0.2528
  18.750   1.4386   0.10880   0.10329  -0.0528  0.0136  1.0001  -6.7322   0.0000   0.0000   0.0000   0.2527
  19.000   1.4356   0.11259   0.10719  -0.0537  0.0134  1.0001  -6.8411   0.0000   0.0000   0.0000   0.2528
  19.250   1.4327   0.11644   0.11113  -0.0546  0.0132  1.0001  -6.9485   0.0000   0.0000   0.0000   0.2529
  19.500   1.4297   0.12032   0.11511  -0.0557  0.0130  1.0001  -7.0545   0.0000   0.0000   0.0000   0.2531
  19.750   1.4267   0.12424   0.11912  -0.0570  0.0128  1.0001  -7.1587   0.0000   0.0000   0.0000   0.2534
  20.000   1.4236   0.12818   0.12315  -0.0583  0.0126  1.0001  -7.2608   0.0000   0.0000   0.0000   0.2538


