xflr5 v6.61

 Calculated polar for: QX0026 v32

 1 1 Reynolds number fixed          Mach number fixed         

 xtrf =   1.000 (top)        1.000 (bottom)
 Mach =   0.000     Re =     0.960 e 6     Ncrit =   5.000

  alpha     CL        CD       CDp       Cm    Top Xtr Bot Xtr   Cpmin    Chinge    XCp    
 ------- -------- --------- --------- -------- ------- ------- -------- --------- ---------
 -10.000  -0.5904   0.01570   0.00980  -0.1060  0.7122  0.0085  -8.2732   0.0000   0.0000   0.0000   0.0541
  -9.500  -0.5392   0.01481   0.00876  -0.1058  0.7081  0.0089  -7.6229   0.0000   0.0000   0.0000   0.0374
  -9.250  -0.5137   0.01431   0.00821  -0.1057  0.7060  0.0094  -7.3078   0.0000   0.0000   0.0000   0.0278
  -9.000  -0.4876   0.01391   0.00777  -0.1057  0.7041  0.0098  -6.9883   0.0000   0.0000   0.0000   0.0167
  -8.750  -0.4612   0.01356   0.00736  -0.1056  0.7022  0.0102  -6.6896   0.0000   0.0000   0.0000   0.0042
  -8.500  -0.4346   0.01323   0.00697  -0.1056  0.7005  0.0107  -6.4023   0.0000   0.0000   0.0000  -0.0099
  -8.250  -0.4078   0.01292   0.00660  -0.1056  0.6988  0.0112  -6.1191   0.0000   0.0000   0.0000  -0.0261
  -8.000  -0.3809   0.01258   0.00622  -0.1056  0.6968  0.0117  -5.8416   0.0000   0.0000   0.0000  -0.0448
  -7.750  -0.3540   0.01225   0.00588  -0.1056  0.6948  0.0124  -5.5648   0.0000   0.0000   0.0000  -0.0663
  -7.500  -0.3268   0.01198   0.00557  -0.1056  0.6929  0.0131  -5.2910   0.0000   0.0000   0.0000  -0.0918
  -7.250  -0.2994   0.01173   0.00527  -0.1057  0.6912  0.0138  -5.0229   0.0000   0.0000   0.0000  -0.1221
  -7.000  -0.2721   0.01148   0.00498  -0.1057  0.6896  0.0145  -4.7606   0.0000   0.0000   0.0000  -0.1585
  -6.750  -0.2447   0.01123   0.00471  -0.1057  0.6880  0.0156  -4.5003   0.0000   0.0000   0.0000  -0.2034
  -6.500  -0.2169   0.01101   0.00447  -0.1058  0.6862  0.0167  -4.2439   0.0000   0.0000   0.0000  -0.2607
  -6.250  -0.1892   0.01079   0.00423  -0.1059  0.6843  0.0178  -3.9946   0.0000   0.0000   0.0000  -0.3347
  -6.000  -0.1615   0.01058   0.00400  -0.1060  0.6822  0.0191  -3.7500   0.0000   0.0000   0.0000  -0.4339
  -5.750  -0.1336   0.01040   0.00378  -0.1061  0.6801  0.0205  -3.5112   0.0000   0.0000   0.0000  -0.5751
  -5.500  -0.1059   0.01021   0.00357  -0.1061  0.6783  0.0221  -3.2782   0.0000   0.0000   0.0000  -0.7894
  -5.250  -0.0778   0.01003   0.00339  -0.1063  0.6763  0.0240  -3.0489   0.0000   0.0000   0.0000  -1.1643
  -5.000  -0.0497   0.00985   0.00320  -0.1064  0.6744  0.0261  -2.8263   0.0000   0.0000   0.0000  -1.9613
  -4.750  -0.0215   0.00969   0.00303  -0.1065  0.6724  0.0285  -2.6089   0.0000   0.0000   0.0000  -4.8491
  -4.500   0.0065   0.00953   0.00286  -0.1066  0.6705  0.0312  -2.3983   0.0000   0.0000   0.0000  17.1000
  -4.250   0.0346   0.00939   0.00271  -0.1067  0.6687  0.0343  -2.1933   0.0000   0.0000   0.0000   3.4161
  -4.000   0.0628   0.00925   0.00257  -0.1069  0.6670  0.0387  -1.9994   0.0000   0.0000   0.0000   1.9945
  -3.750   0.0911   0.00909   0.00244  -0.1070  0.6650  0.0441  -1.8223   0.0000   0.0000   0.0000   1.4517
  -3.500   0.1194   0.00895   0.00231  -0.1072  0.6627  0.0508  -1.6503   0.0000   0.0000   0.0000   1.1666
  -3.250   0.1476   0.00880   0.00220  -0.1073  0.6604  0.0603  -1.4865   0.0000   0.0000   0.0000   0.9911
  -3.000   0.1756   0.00866   0.00208  -0.1074  0.6582  0.0727  -1.3491   0.0000   0.0000   0.0000   0.8723
  -2.750   0.2036   0.00851   0.00198  -0.1076  0.6561  0.0895  -1.2187   0.0000   0.0000   0.0000   0.7863
  -2.500   0.2318   0.00835   0.00190  -0.1077  0.6538  0.1100  -1.0916   0.0000   0.0000   0.0000   0.7210
  -2.250   0.2600   0.00820   0.00182  -0.1079  0.6513  0.1322  -0.9750   0.0000   0.0000   0.0000   0.6698
  -2.000   0.2881   0.00807   0.00175  -0.1080  0.6490  0.1548  -0.8649   0.0000   0.0000   0.0000   0.6286
  -1.750   0.3160   0.00795   0.00168  -0.1082  0.6468  0.1801  -0.7657   0.0000   0.0000   0.0000   0.5948
  -1.500   0.3441   0.00780   0.00163  -0.1083  0.6444  0.2125  -0.7815   0.0000   0.0000   0.0000   0.5666
  -1.250   0.3720   0.00764   0.00160  -0.1085  0.6417  0.2507  -0.7979   0.0000   0.0000   0.0000   0.5426
  -1.000   0.3999   0.00751   0.00156  -0.1086  0.6390  0.2880  -0.8143   0.0000   0.0000   0.0000   0.5220
  -0.750   0.4277   0.00739   0.00154  -0.1087  0.6365  0.3269  -0.8306   0.0000   0.0000   0.0000   0.5040
  -0.500   0.4559   0.00730   0.00154  -0.1089  0.6340  0.3598  -0.8471   0.0000   0.0000   0.0000   0.4882
  -0.250   0.4841   0.00721   0.00154  -0.1091  0.6310  0.3918  -0.8638   0.0000   0.0000   0.0000   0.4741
   0.000   0.5122   0.00714   0.00154  -0.1092  0.6280  0.4228  -0.8821   0.0000   0.0000   0.0000   0.4616
   0.250   0.5401   0.00707   0.00154  -0.1093  0.6251  0.4546  -0.9004   0.0000   0.0000   0.0000   0.4504
   0.750   0.5963   0.00694   0.00158  -0.1096  0.6184  0.5183  -0.9372   0.0000   0.0000   0.0000   0.4311
   1.000   0.6239   0.00687   0.00160  -0.1096  0.6151  0.5577  -0.9555   0.0000   0.0000   0.0000   0.4227
   1.250   0.6516   0.00680   0.00164  -0.1097  0.6116  0.5943  -0.9758   0.0000   0.0000   0.0000   0.4150
   1.500   0.6791   0.00673   0.00168  -0.1097  0.6075  0.6373  -0.9960   0.0000   0.0000   0.0000   0.4079
   1.750   0.7059   0.00667   0.00173  -0.1096  0.6035  0.6849  -1.0160   0.0000   0.0000   0.0000   0.4013
   2.000   0.7328   0.00659   0.00179  -0.1094  0.5995  0.7320  -1.0360   0.0000   0.0000   0.0000   0.3951
   2.250   0.7592   0.00654   0.00185  -0.1092  0.5948  0.7750  -1.0573   0.0000   0.0000   0.0000   0.3893
   2.500   0.7853   0.00648   0.00191  -0.1088  0.5900  0.8200  -1.0792   0.0000   0.0000   0.0000   0.3837
   2.750   0.8107   0.00640   0.00198  -0.1083  0.5842  0.8722  -1.1009   0.0000   0.0000   0.0000   0.3784
   3.000   0.8529   0.00634   0.00207  -0.1115  0.5771  0.9523  -1.1335   0.0000   0.0000   0.0000   0.3753
   3.250   0.9029   0.00644   0.00215  -0.1167  0.5674  0.9959  -1.1729   0.0000   0.0000   0.0000   0.3735
   3.500   0.9312   0.00656   0.00223  -0.1169  0.5586  1.0001  -1.2039   0.0000   0.0000   0.0000   0.3695
   3.750   0.9562   0.00669   0.00232  -0.1164  0.5492  1.0001  -1.2382   0.0000   0.0000   0.0000   0.3655
   4.000   0.9812   0.00682   0.00241  -0.1160  0.5387  1.0001  -1.2733   0.0000   0.0000   0.0000   0.3616
   4.250   1.0062   0.00697   0.00252  -0.1155  0.5279  1.0001  -1.3085   0.0000   0.0000   0.0000   0.3579
   4.500   1.0312   0.00711   0.00264  -0.1151  0.5180  1.0001  -1.3439   0.0000   0.0000   0.0000   0.3544
   4.750   1.0560   0.00727   0.00276  -0.1146  0.5084  1.0001  -1.3794   0.0000   0.0000   0.0000   0.3510
   5.000   1.0806   0.00745   0.00291  -0.1141  0.4978  1.0001  -1.4148   0.0000   0.0000   0.0000   0.3478
   5.250   1.1048   0.00764   0.00307  -0.1136  0.4860  1.0001  -1.4530   0.0000   0.0000   0.0000   0.3446
   5.500   1.1286   0.00786   0.00324  -0.1130  0.4742  1.0001  -1.4918   0.0000   0.0000   0.0000   0.3416
   5.750   1.1514   0.00812   0.00345  -0.1122  0.4594  1.0001  -1.5298   0.0000   0.0000   0.0000   0.3386
   6.000   1.1728   0.00846   0.00370  -0.1112  0.4396  1.0001  -1.5671   0.0000   0.0000   0.0000   0.3356
   6.250   1.1939   0.00880   0.00397  -0.1101  0.4210  1.0001  -1.6052   0.0000   0.0000   0.0000   0.3327
   6.500   1.2152   0.00913   0.00424  -0.1091  0.4043  1.0001  -1.6904   0.0000   0.0000   0.0000   0.3300
   6.750   1.2333   0.00960   0.00460  -0.1076  0.3794  1.0001  -1.7981   0.0000   0.0000   0.0000   0.3271
   7.000   1.2472   0.01026   0.00507  -0.1053  0.3451  1.0001  -1.9004   0.0000   0.0000   0.0000   0.3239
   7.250   1.2597   0.01094   0.00558  -0.1029  0.3118  1.0001  -2.0056   0.0000   0.0000   0.0000   0.3208
   7.500   1.2704   0.01163   0.00611  -0.1001  0.2828  1.0001  -2.1078   0.0000   0.0000   0.0000   0.3176
   7.750   1.2787   0.01232   0.00667  -0.0969  0.2569  1.0001  -2.2052   0.0000   0.0000   0.0000   0.3142
   8.000   1.2878   0.01306   0.00730  -0.0941  0.2340  1.0001  -2.3059   0.0000   0.0000   0.0000   0.3111
   8.250   1.2969   0.01388   0.00802  -0.0915  0.2125  1.0001  -2.4076   0.0000   0.0000   0.0000   0.3082
   8.500   1.3048   0.01486   0.00888  -0.0890  0.1906  1.0001  -2.5066   0.0000   0.0000   0.0000   0.3054
   8.750   1.3150   0.01582   0.00977  -0.0870  0.1732  1.0001  -2.6133   0.0000   0.0000   0.0000   0.3030
   9.000   1.3265   0.01679   0.01068  -0.0853  0.1584  1.0001  -2.7249   0.0000   0.0000   0.0000   0.3008
   9.250   1.3369   0.01790   0.01172  -0.0837  0.1424  1.0001  -2.8343   0.0000   0.0000   0.0000   0.2986
   9.500   1.3447   0.01922   0.01295  -0.0819  0.1230  1.0001  -2.9371   0.0000   0.0000   0.0000   0.2965
   9.750   1.3501   0.02075   0.01437  -0.0800  0.1012  1.0001  -3.0329   0.0000   0.0000   0.0000   0.2944
  10.000   1.3551   0.02234   0.01586  -0.0780  0.0819  1.0001  -3.1279   0.0000   0.0000   0.0000   0.2923
  10.250   1.3620   0.02380   0.01725  -0.0764  0.0688  1.0001  -3.2301   0.0000   0.0000   0.0000   0.2903
  10.500   1.3712   0.02510   0.01852  -0.0749  0.0597  1.0001  -3.3411   0.0000   0.0000   0.0000   0.2884
  10.750   1.3809   0.02638   0.01978  -0.0736  0.0530  1.0001  -3.4544   0.0000   0.0000   0.0000   0.2866
  11.000   1.3911   0.02762   0.02103  -0.0723  0.0475  1.0001  -3.5708   0.0000   0.0000   0.0000   0.2848
  11.250   1.4010   0.02890   0.02229  -0.0710  0.0415  1.0001  -3.6874   0.0000   0.0000   0.0000   0.2831
  11.500   1.4095   0.03028   0.02366  -0.0697  0.0351  1.0001  -3.8001   0.0000   0.0000   0.0000   0.2814
  11.750   1.4176   0.03171   0.02508  -0.0683  0.0297  1.0001  -3.9162   0.0000   0.0000   0.0000   0.2797
  12.000   1.4258   0.03314   0.02652  -0.0670  0.0259  1.0001  -4.0386   0.0000   0.0000   0.0000   0.2780
  12.250   1.4341   0.03460   0.02799  -0.0658  0.0231  1.0001  -4.1626   0.0000   0.0000   0.0000   0.2764
  12.500   1.4433   0.03602   0.02944  -0.0647  0.0210  1.0001  -4.2911   0.0000   0.0000   0.0000   0.2748
  12.750   1.4521   0.03750   0.03094  -0.0636  0.0194  1.0001  -4.4192   0.0000   0.0000   0.0000   0.2733
  13.000   1.4609   0.03901   0.03248  -0.0626  0.0178  1.0001  -4.5485   0.0000   0.0000   0.0000   0.2719
  13.250   1.4693   0.04058   0.03408  -0.0616  0.0166  1.0001  -4.6774   0.0000   0.0000   0.0000   0.2705
  13.500   1.4782   0.04214   0.03568  -0.0607  0.0157  1.0001  -4.8090   0.0000   0.0000   0.0000   0.2691
  13.750   1.4861   0.04380   0.03739  -0.0598  0.0149  1.0001  -4.9383   0.0000   0.0000   0.0000   0.2677
  14.250   1.5013   0.04728   0.04095  -0.0580  0.0136  1.0001  -5.1973   0.0000   0.0000   0.0000   0.2651
  14.500   1.5086   0.04908   0.04280  -0.0573  0.0132  1.0001  -5.3295   0.0000   0.0000   0.0000   0.2639
  14.750   1.5154   0.05094   0.04471  -0.0565  0.0128  1.0001  -5.4679   0.0000   0.0000   0.0000   0.2627
  15.000   1.5215   0.05291   0.04673  -0.0558  0.0125  1.0001  -5.6041   0.0000   0.0000   0.0000   0.2615
  15.250   1.5269   0.05499   0.04886  -0.0551  0.0122  1.0001  -5.7377   0.0000   0.0000   0.0000   0.2604
  15.500   1.5315   0.05716   0.05109  -0.0544  0.0119  1.0001  -5.8681   0.0000   0.0000   0.0000   0.2593
  15.750   1.5352   0.05947   0.05345  -0.0537  0.0117  1.0001  -5.9935   0.0000   0.0000   0.0000   0.2582
  16.000   1.5390   0.06180   0.05585  -0.0532  0.0115  1.0001  -6.1227   0.0000   0.0000   0.0000   0.2572
  16.250   1.5431   0.06413   0.05825  -0.0527  0.0113  1.0001  -6.2618   0.0000   0.0000   0.0000   0.2562
  16.500   1.5466   0.06655   0.06073  -0.0522  0.0112  1.0001  -6.3986   0.0000   0.0000   0.0000   0.2553
  16.750   1.5495   0.06906   0.06332  -0.0518  0.0110  1.0001  -6.5328   0.0000   0.0000   0.0000   0.2544
  17.000   1.5519   0.07167   0.06600  -0.0515  0.0109  1.0001  -6.6652   0.0000   0.0000   0.0000   0.2535
  17.250   1.5536   0.07439   0.06880  -0.0513  0.0107  1.0001  -6.7946   0.0000   0.0000   0.0000   0.2527
  17.500   1.5546   0.07723   0.07171  -0.0511  0.0105  1.0001  -6.9209   0.0000   0.0000   0.0000   0.2520
  17.750   1.5549   0.08018   0.07473  -0.0509  0.0104  1.0001  -7.0533   0.0000   0.0000   0.0000   0.2513
  18.000   1.5544   0.08327   0.07790  -0.0509  0.0102  1.0001  -7.1984   0.0000   0.0000   0.0000   0.2506
  18.250   1.5531   0.08649   0.08120  -0.0510  0.0101  1.0001  -7.3388   0.0000   0.0000   0.0000   0.2501
  18.500   1.5512   0.08985   0.08463  -0.0511  0.0100  1.0001  -7.4743   0.0000   0.0000   0.0000   0.2496
  18.750   1.5485   0.09333   0.08820  -0.0514  0.0098  1.0001  -7.6035   0.0000   0.0000   0.0000   0.2492
  19.000   1.5449   0.09697   0.09192  -0.0517  0.0097  1.0001  -7.7261   0.0000   0.0000   0.0000   0.2489
  19.250   1.5406   0.10077   0.09580  -0.0522  0.0096  1.0001  -7.8415   0.0000   0.0000   0.0000   0.2486
  19.500   1.5351   0.10477   0.09988  -0.0529  0.0095  1.0001  -7.9473   0.0000   0.0000   0.0000   0.2485
  19.750   1.5284   0.10900   0.10420  -0.0537  0.0093  1.0001  -8.0403   0.0000   0.0000   0.0000   0.2486
  20.000   1.5207   0.11341   0.10870  -0.0547  0.0092  1.0001  -8.1233   0.0000   0.0000   0.0000   0.2488


