xflr5 v6.61

 Calculated polar for: QX0026 v32

 1 1 Reynolds number fixed          Mach number fixed         

 xtrf =   1.000 (top)        1.000 (bottom)
 Mach =   0.000     Re =     1.000 e 6     Ncrit =   5.000

  alpha     CL        CD       CDp       Cm    Top Xtr Bot Xtr   Cpmin    Chinge    XCp    
 ------- -------- --------- --------- -------- ------- ------- -------- --------- ---------
 -10.000  -0.5915   0.01547   0.00959  -0.1059  0.7110  0.0084  -8.2939   0.0000   0.0000   0.0000   0.0546
  -9.750  -0.5660   0.01503   0.00907  -0.1058  0.7089  0.0086  -7.9647   0.0000   0.0000   0.0000   0.0467
  -9.500  -0.5400   0.01461   0.00859  -0.1057  0.7067  0.0088  -7.6376   0.0000   0.0000   0.0000   0.0378
  -9.250  -0.5144   0.01413   0.00806  -0.1056  0.7046  0.0092  -7.3220   0.0000   0.0000   0.0000   0.0282
  -9.000  -0.4883   0.01373   0.00761  -0.1056  0.7028  0.0096  -7.0029   0.0000   0.0000   0.0000   0.0172
  -8.750  -0.4619   0.01338   0.00721  -0.1056  0.7010  0.0101  -6.7031   0.0000   0.0000   0.0000   0.0048
  -8.500  -0.4353   0.01306   0.00683  -0.1055  0.6994  0.0106  -6.4141   0.0000   0.0000   0.0000  -0.0093
  -8.250  -0.4083   0.01274   0.00647  -0.1055  0.6975  0.0111  -6.1290   0.0000   0.0000   0.0000  -0.0257
  -8.000  -0.3812   0.01244   0.00612  -0.1056  0.6954  0.0115  -5.8488   0.0000   0.0000   0.0000  -0.0444
  -7.750  -0.3544   0.01211   0.00576  -0.1056  0.6935  0.0122  -5.5734   0.0000   0.0000   0.0000  -0.0658
  -7.500  -0.3272   0.01184   0.00546  -0.1056  0.6917  0.0129  -5.2989   0.0000   0.0000   0.0000  -0.0912
  -7.250  -0.2999   0.01159   0.00517  -0.1056  0.6901  0.0137  -5.0299   0.0000   0.0000   0.0000  -0.1214
  -7.000  -0.2723   0.01137   0.00490  -0.1057  0.6885  0.0143  -4.7657   0.0000   0.0000   0.0000  -0.1580
  -6.750  -0.2449   0.01110   0.00462  -0.1057  0.6868  0.0153  -4.5060   0.0000   0.0000   0.0000  -0.2029
  -6.500  -0.2171   0.01088   0.00439  -0.1058  0.6850  0.0165  -4.2490   0.0000   0.0000   0.0000  -0.2600
  -6.250  -0.1893   0.01068   0.00416  -0.1059  0.6830  0.0175  -3.9985   0.0000   0.0000   0.0000  -0.3341
  -6.000  -0.1617   0.01046   0.00392  -0.1060  0.6809  0.0189  -3.7542   0.0000   0.0000   0.0000  -0.4327
  -5.750  -0.1339   0.01029   0.00371  -0.1060  0.6790  0.0202  -3.5150   0.0000   0.0000   0.0000  -0.5732
  -5.500  -0.1059   0.01010   0.00351  -0.1061  0.6770  0.0218  -3.2810   0.0000   0.0000   0.0000  -0.7891
  -5.250  -0.0778   0.00992   0.00332  -0.1063  0.6750  0.0237  -3.0514   0.0000   0.0000   0.0000  -1.1630
  -5.000  -0.0497   0.00974   0.00314  -0.1064  0.6731  0.0257  -2.8284   0.0000   0.0000   0.0000  -1.9596
  -4.750  -0.0216   0.00958   0.00298  -0.1065  0.6712  0.0281  -2.6109   0.0000   0.0000   0.0000  -4.8279
  -4.500   0.0064   0.00943   0.00281  -0.1066  0.6693  0.0308  -2.4000   0.0000   0.0000   0.0000  17.2894
  -4.250   0.0345   0.00930   0.00266  -0.1067  0.6676  0.0338  -2.1948   0.0000   0.0000   0.0000   3.4215
  -4.000   0.0629   0.00915   0.00252  -0.1069  0.6658  0.0380  -1.9997   0.0000   0.0000   0.0000   1.9912
  -3.750   0.0912   0.00900   0.00239  -0.1070  0.6637  0.0434  -1.8225   0.0000   0.0000   0.0000   1.4503
  -3.500   0.1195   0.00885   0.00227  -0.1072  0.6614  0.0499  -1.6505   0.0000   0.0000   0.0000   1.1661
  -3.250   0.1476   0.00872   0.00215  -0.1073  0.6592  0.0591  -1.4866   0.0000   0.0000   0.0000   0.9907
  -3.000   0.1757   0.00858   0.00204  -0.1074  0.6571  0.0711  -1.3493   0.0000   0.0000   0.0000   0.8721
  -2.750   0.2039   0.00842   0.00194  -0.1076  0.6548  0.0873  -1.2185   0.0000   0.0000   0.0000   0.7858
  -2.500   0.2320   0.00826   0.00186  -0.1078  0.6524  0.1072  -1.0914   0.0000   0.0000   0.0000   0.7206
  -2.250   0.2601   0.00812   0.00178  -0.1079  0.6500  0.1295  -0.9749   0.0000   0.0000   0.0000   0.6696
  -2.000   0.2882   0.00799   0.00171  -0.1081  0.6478  0.1514  -0.8647   0.0000   0.0000   0.0000   0.6284
  -1.750   0.3163   0.00787   0.00165  -0.1082  0.6456  0.1763  -0.7660   0.0000   0.0000   0.0000   0.5946
  -1.250   0.3723   0.00757   0.00156  -0.1085  0.6403  0.2456  -0.7982   0.0000   0.0000   0.0000   0.5425
  -1.000   0.4002   0.00744   0.00152  -0.1086  0.6377  0.2818  -0.8145   0.0000   0.0000   0.0000   0.5218
  -0.750   0.4280   0.00733   0.00150  -0.1087  0.6353  0.3212  -0.8308   0.0000   0.0000   0.0000   0.5039
  -0.500   0.4563   0.00723   0.00150  -0.1089  0.6325  0.3536  -0.8474   0.0000   0.0000   0.0000   0.4881
  -0.250   0.4844   0.00713   0.00150  -0.1091  0.6295  0.3862  -0.8641   0.0000   0.0000   0.0000   0.4741
   0.000   0.5125   0.00707   0.00150  -0.1092  0.6266  0.4168  -0.8824   0.0000   0.0000   0.0000   0.4616
   0.250   0.5405   0.00700   0.00150  -0.1093  0.6237  0.4481  -0.9007   0.0000   0.0000   0.0000   0.4504
   0.500   0.5688   0.00694   0.00152  -0.1095  0.6203  0.4754  -0.9192   0.0000   0.0000   0.0000   0.4403
   0.750   0.5967   0.00687   0.00154  -0.1096  0.6169  0.5094  -0.9376   0.0000   0.0000   0.0000   0.4311
   1.000   0.6243   0.00681   0.00156  -0.1097  0.6137  0.5482  -0.9558   0.0000   0.0000   0.0000   0.4227
   1.250   0.6523   0.00674   0.00160  -0.1098  0.6099  0.5855  -0.9762   0.0000   0.0000   0.0000   0.4150
   1.500   0.6797   0.00667   0.00164  -0.1098  0.6058  0.6271  -0.9965   0.0000   0.0000   0.0000   0.4079
   1.750   0.7067   0.00661   0.00168  -0.1097  0.6019  0.6742  -1.0165   0.0000   0.0000   0.0000   0.4013
   2.000   0.7336   0.00653   0.00175  -0.1096  0.5977  0.7217  -1.0365   0.0000   0.0000   0.0000   0.3951
   2.250   0.7600   0.00649   0.00180  -0.1094  0.5931  0.7645  -1.0579   0.0000   0.0000   0.0000   0.3893
   2.500   0.7864   0.00643   0.00187  -0.1091  0.5879  0.8082  -1.0800   0.0000   0.0000   0.0000   0.3839
   2.750   0.8118   0.00637   0.00193  -0.1086  0.5821  0.8573  -1.1016   0.0000   0.0000   0.0000   0.3786
   3.000   0.8423   0.00627   0.00202  -0.1091  0.5749  0.9287  -1.1271   0.0000   0.0000   0.0000   0.3741
   3.250   0.9005   0.00636   0.00211  -0.1161  0.5646  0.9908  -1.1715   0.0000   0.0000   0.0000   0.3732
   3.500   0.9318   0.00648   0.00220  -0.1171  0.5557  1.0001  -1.2044   0.0000   0.0000   0.0000   0.3696
   3.750   0.9568   0.00661   0.00228  -0.1166  0.5459  1.0001  -1.2388   0.0000   0.0000   0.0000   0.3655
   4.000   0.9818   0.00675   0.00238  -0.1161  0.5352  1.0001  -1.2738   0.0000   0.0000   0.0000   0.3616
   4.250   1.0067   0.00690   0.00249  -0.1156  0.5243  1.0001  -1.3090   0.0000   0.0000   0.0000   0.3579
   4.500   1.0315   0.00705   0.00261  -0.1152  0.5147  1.0001  -1.3443   0.0000   0.0000   0.0000   0.3544
   4.750   1.0562   0.00722   0.00274  -0.1147  0.5051  1.0001  -1.3796   0.0000   0.0000   0.0000   0.3510
   5.000   1.0807   0.00740   0.00289  -0.1142  0.4940  1.0001  -1.4150   0.0000   0.0000   0.0000   0.3478
   5.250   1.1050   0.00759   0.00305  -0.1136  0.4821  1.0001  -1.4533   0.0000   0.0000   0.0000   0.3447
   5.500   1.1289   0.00780   0.00322  -0.1130  0.4700  1.0001  -1.4920   0.0000   0.0000   0.0000   0.3416
   5.750   1.1515   0.00808   0.00343  -0.1122  0.4540  1.0001  -1.5299   0.0000   0.0000   0.0000   0.3386
   6.000   1.1727   0.00842   0.00369  -0.1112  0.4336  1.0001  -1.5672   0.0000   0.0000   0.0000   0.3356
   6.250   1.1940   0.00876   0.00395  -0.1101  0.4162  1.0001  -1.6054   0.0000   0.0000   0.0000   0.3328
   6.500   1.2150   0.00910   0.00422  -0.1091  0.3981  1.0001  -1.6902   0.0000   0.0000   0.0000   0.3300
   6.750   1.2326   0.00960   0.00459  -0.1075  0.3717  1.0001  -1.7968   0.0000   0.0000   0.0000   0.3270
   7.000   1.2462   0.01026   0.00507  -0.1052  0.3364  1.0001  -1.8985   0.0000   0.0000   0.0000   0.3239
   7.250   1.2585   0.01095   0.00559  -0.1027  0.3035  1.0001  -2.0033   0.0000   0.0000   0.0000   0.3207
   7.500   1.2697   0.01161   0.00610  -0.1000  0.2750  1.0001  -2.1068   0.0000   0.0000   0.0000   0.3176
   7.750   1.2784   0.01229   0.00666  -0.0969  0.2504  1.0001  -2.2051   0.0000   0.0000   0.0000   0.3142
   8.000   1.2877   0.01303   0.00728  -0.0941  0.2278  1.0001  -2.3063   0.0000   0.0000   0.0000   0.3111
   8.250   1.2968   0.01385   0.00800  -0.0915  0.2065  1.0001  -2.4079   0.0000   0.0000   0.0000   0.3082
   8.500   1.3055   0.01479   0.00883  -0.0891  0.1854  1.0001  -2.5094   0.0000   0.0000   0.0000   0.3055
   8.750   1.3160   0.01572   0.00969  -0.0871  0.1684  1.0001  -2.6172   0.0000   0.0000   0.0000   0.3030
   9.000   1.3275   0.01669   0.01060  -0.0855  0.1541  1.0001  -2.7287   0.0000   0.0000   0.0000   0.3008
   9.250   1.3374   0.01783   0.01167  -0.0838  0.1369  1.0001  -2.8367   0.0000   0.0000   0.0000   0.2986
   9.500   1.3447   0.01919   0.01292  -0.0819  0.1169  1.0001  -2.9377   0.0000   0.0000   0.0000   0.2965
   9.750   1.3497   0.02075   0.01437  -0.0799  0.0950  1.0001  -3.0323   0.0000   0.0000   0.0000   0.2944
  10.000   1.3552   0.02229   0.01582  -0.0781  0.0771  1.0001  -3.1293   0.0000   0.0000   0.0000   0.2923
  10.250   1.3635   0.02365   0.01714  -0.0765  0.0657  1.0001  -3.2359   0.0000   0.0000   0.0000   0.2903
  10.500   1.3730   0.02494   0.01839  -0.0751  0.0574  1.0001  -3.3477   0.0000   0.0000   0.0000   0.2885
  10.750   1.3834   0.02616   0.01960  -0.0738  0.0513  1.0001  -3.4639   0.0000   0.0000   0.0000   0.2867
  11.000   1.3939   0.02739   0.02083  -0.0725  0.0457  1.0001  -3.5813   0.0000   0.0000   0.0000   0.2849
  11.250   1.4033   0.02869   0.02212  -0.0712  0.0395  1.0001  -3.6966   0.0000   0.0000   0.0000   0.2832
  11.500   1.4119   0.03007   0.02348  -0.0699  0.0333  1.0001  -3.8097   0.0000   0.0000   0.0000   0.2814
  11.750   1.4202   0.03148   0.02489  -0.0685  0.0282  1.0001  -3.9271   0.0000   0.0000   0.0000   0.2797
  12.000   1.4286   0.03289   0.02631  -0.0672  0.0248  1.0001  -4.0507   0.0000   0.0000   0.0000   0.2781
  12.250   1.4375   0.03430   0.02773  -0.0661  0.0224  1.0001  -4.1771   0.0000   0.0000   0.0000   0.2765
  12.500   1.4463   0.03575   0.02920  -0.0649  0.0203  1.0001  -4.3043   0.0000   0.0000   0.0000   0.2749
  12.750   1.4556   0.03717   0.03065  -0.0639  0.0187  1.0001  -4.4348   0.0000   0.0000   0.0000   0.2734
  13.000   1.4641   0.03870   0.03221  -0.0628  0.0172  1.0001  -4.5633   0.0000   0.0000   0.0000   0.2719
  13.250   1.4733   0.04021   0.03375  -0.0619  0.0162  1.0001  -4.6953   0.0000   0.0000   0.0000   0.2705
  13.500   1.4819   0.04178   0.03537  -0.0609  0.0153  1.0001  -4.8265   0.0000   0.0000   0.0000   0.2692
  13.750   1.4896   0.04346   0.03707  -0.0600  0.0144  1.0001  -4.9555   0.0000   0.0000   0.0000   0.2678
  14.000   1.4976   0.04514   0.03880  -0.0591  0.0138  1.0001  -5.0863   0.0000   0.0000   0.0000   0.2665
  14.250   1.5055   0.04686   0.04056  -0.0583  0.0133  1.0001  -5.2183   0.0000   0.0000   0.0000   0.2652
  14.500   1.5128   0.04865   0.04240  -0.0575  0.0129  1.0001  -5.3515   0.0000   0.0000   0.0000   0.2640
  14.750   1.5196   0.05051   0.04431  -0.0567  0.0126  1.0001  -5.4901   0.0000   0.0000   0.0000   0.2627
  15.000   1.5255   0.05249   0.04634  -0.0560  0.0122  1.0001  -5.6258   0.0000   0.0000   0.0000   0.2616
  15.250   1.5309   0.05457   0.04847  -0.0552  0.0119  1.0001  -5.7592   0.0000   0.0000   0.0000   0.2604
  15.500   1.5352   0.05676   0.05072  -0.0545  0.0117  1.0001  -5.8879   0.0000   0.0000   0.0000   0.2593
  15.750   1.5398   0.05896   0.05297  -0.0539  0.0115  1.0001  -6.0188   0.0000   0.0000   0.0000   0.2582
  16.000   1.5445   0.06118   0.05526  -0.0534  0.0113  1.0001  -6.1547   0.0000   0.0000   0.0000   0.2572
  16.250   1.5488   0.06348   0.05763  -0.0529  0.0112  1.0001  -6.2953   0.0000   0.0000   0.0000   0.2562
  16.500   1.5525   0.06587   0.06009  -0.0524  0.0110  1.0001  -6.4336   0.0000   0.0000   0.0000   0.2552
  16.750   1.5554   0.06836   0.06265  -0.0520  0.0109  1.0001  -6.5690   0.0000   0.0000   0.0000   0.2543
  17.000   1.5577   0.07097   0.06533  -0.0516  0.0107  1.0001  -6.7018   0.0000   0.0000   0.0000   0.2535
  17.250   1.5595   0.07368   0.06811  -0.0514  0.0105  1.0001  -6.8323   0.0000   0.0000   0.0000   0.2527
  17.500   1.5606   0.07650   0.07100  -0.0512  0.0103  1.0001  -6.9595   0.0000   0.0000   0.0000   0.2519
  17.750   1.5608   0.07943   0.07401  -0.0510  0.0102  1.0001  -7.0964   0.0000   0.0000   0.0000   0.2512
  18.000   1.5602   0.08251   0.07716  -0.0510  0.0100  1.0001  -7.2419   0.0000   0.0000   0.0000   0.2506
  18.250   1.5590   0.08573   0.08045  -0.0510  0.0099  1.0001  -7.3827   0.0000   0.0000   0.0000   0.2500
  18.500   1.5569   0.08909   0.08389  -0.0511  0.0098  1.0001  -7.5178   0.0000   0.0000   0.0000   0.2495
  18.750   1.5539   0.09260   0.08748  -0.0513  0.0097  1.0001  -7.6454   0.0000   0.0000   0.0000   0.2491
  19.000   1.5497   0.09631   0.09127  -0.0517  0.0095  1.0001  -7.7638   0.0000   0.0000   0.0000   0.2487
  19.250   1.5444   0.10024   0.09528  -0.0522  0.0094  1.0001  -7.8722   0.0000   0.0000   0.0000   0.2485
  19.500   1.5379   0.10439   0.09952  -0.0529  0.0093  1.0001  -7.9694   0.0000   0.0000   0.0000   0.2485
  19.750   1.5331   0.10832   0.10354  -0.0536  0.0092  1.0001  -8.0794   0.0000   0.0000   0.0000   0.2484
  20.000   1.5303   0.11198   0.10729  -0.0544  0.0091  1.0001  -8.2052   0.0000   0.0000   0.0000   0.2483


