xflr5 v6.61

 Calculated polar for: QX0026 v32

 1 1 Reynolds number fixed          Mach number fixed         

 xtrf =   1.000 (top)        1.000 (bottom)
 Mach =   0.000     Re =     0.840 e 6     Ncrit =   5.000

  alpha     CL        CD       CDp       Cm    Top Xtr Bot Xtr   Cpmin    Chinge    XCp    
 ------- -------- --------- --------- -------- ------- ------- -------- --------- ---------
 -10.000  -0.5863   0.01652   0.01055  -0.1064  0.7168  0.0088  -8.2011   0.0000   0.0000   0.0000   0.0521
  -9.750  -0.5618   0.01594   0.00988  -0.1062  0.7146  0.0091  -7.8881   0.0000   0.0000   0.0000   0.0445
  -9.500  -0.5368   0.01542   0.00930  -0.1061  0.7124  0.0095  -7.5716   0.0000   0.0000   0.0000   0.0359
  -9.250  -0.5112   0.01499   0.00880  -0.1060  0.7105  0.0098  -7.2529   0.0000   0.0000   0.0000   0.0262
  -9.000  -0.4851   0.01458   0.00834  -0.1059  0.7086  0.0103  -6.9369   0.0000   0.0000   0.0000   0.0150
  -8.750  -0.4588   0.01419   0.00789  -0.1059  0.7066  0.0107  -6.6438   0.0000   0.0000   0.0000   0.0024
  -8.500  -0.4323   0.01382   0.00747  -0.1059  0.7047  0.0112  -6.3620   0.0000   0.0000   0.0000  -0.0119
  -8.250  -0.4059   0.01345   0.00703  -0.1058  0.7028  0.0116  -6.0858   0.0000   0.0000   0.0000  -0.0279
  -8.000  -0.3795   0.01309   0.00663  -0.1058  0.7010  0.0123  -5.8095   0.0000   0.0000   0.0000  -0.0464
  -7.750  -0.3526   0.01279   0.00628  -0.1058  0.6992  0.0130  -5.5346   0.0000   0.0000   0.0000  -0.0680
  -7.500  -0.3254   0.01250   0.00595  -0.1058  0.6973  0.0137  -5.2646   0.0000   0.0000   0.0000  -0.0938
  -7.250  -0.2981   0.01222   0.00563  -0.1058  0.6954  0.0143  -4.9994   0.0000   0.0000   0.0000  -0.1244
  -7.000  -0.2710   0.01192   0.00531  -0.1059  0.6935  0.0153  -4.7378   0.0000   0.0000   0.0000  -0.1609
  -6.750  -0.2436   0.01169   0.00504  -0.1059  0.6918  0.0164  -4.4786   0.0000   0.0000   0.0000  -0.2063
  -6.500  -0.2160   0.01148   0.00477  -0.1060  0.6902  0.0174  -4.2260   0.0000   0.0000   0.0000  -0.2635
  -6.250  -0.1886   0.01122   0.00450  -0.1060  0.6886  0.0187  -3.9794   0.0000   0.0000   0.0000  -0.3369
  -6.000  -0.1608   0.01100   0.00427  -0.1061  0.6866  0.0200  -3.7364   0.0000   0.0000   0.0000  -0.4374
  -5.750  -0.1330   0.01079   0.00404  -0.1062  0.6844  0.0214  -3.4992   0.0000   0.0000   0.0000  -0.5800
  -5.500  -0.1052   0.01059   0.00382  -0.1063  0.6822  0.0232  -3.2663   0.0000   0.0000   0.0000  -0.7974
  -5.250  -0.0773   0.01041   0.00361  -0.1063  0.6802  0.0250  -3.0399   0.0000   0.0000   0.0000  -1.1730
  -5.000  -0.0496   0.01023   0.00341  -0.1064  0.6785  0.0273  -2.8189   0.0000   0.0000   0.0000  -1.9669
  -4.750  -0.0215   0.01006   0.00323  -0.1065  0.6767  0.0297  -2.6031   0.0000   0.0000   0.0000  -4.8612
  -4.500   0.0067   0.00989   0.00306  -0.1067  0.6747  0.0326  -2.3928   0.0000   0.0000   0.0000  16.7188
  -4.250   0.0348   0.00972   0.00290  -0.1068  0.6726  0.0362  -2.1884   0.0000   0.0000   0.0000   3.4052
  -4.000   0.0628   0.00957   0.00274  -0.1069  0.6706  0.0410  -1.9969   0.0000   0.0000   0.0000   1.9936
  -3.750   0.0909   0.00942   0.00260  -0.1070  0.6689  0.0466  -1.8209   0.0000   0.0000   0.0000   1.4540
  -3.500   0.1190   0.00929   0.00247  -0.1071  0.6672  0.0540  -1.6499   0.0000   0.0000   0.0000   1.1692
  -3.250   0.1472   0.00912   0.00235  -0.1073  0.6649  0.0649  -1.4863   0.0000   0.0000   0.0000   0.9928
  -3.000   0.1753   0.00896   0.00224  -0.1074  0.6624  0.0787  -1.3485   0.0000   0.0000   0.0000   0.8734
  -2.750   0.2033   0.00880   0.00213  -0.1076  0.6600  0.0967  -1.2185   0.0000   0.0000   0.0000   0.7872
  -2.500   0.2312   0.00864   0.00203  -0.1077  0.6579  0.1191  -1.0921   0.0000   0.0000   0.0000   0.7220
  -2.250   0.2592   0.00850   0.00195  -0.1078  0.6558  0.1415  -0.9759   0.0000   0.0000   0.0000   0.6707
  -2.000   0.2874   0.00835   0.00189  -0.1080  0.6534  0.1658  -0.8657   0.0000   0.0000   0.0000   0.6293
  -1.750   0.3154   0.00821   0.00183  -0.1081  0.6509  0.1936  -0.7648   0.0000   0.0000   0.0000   0.5954
  -1.500   0.3432   0.00804   0.00177  -0.1083  0.6485  0.2314  -0.7807   0.0000   0.0000   0.0000   0.5672
  -1.250   0.3709   0.00791   0.00172  -0.1084  0.6462  0.2688  -0.7970   0.0000   0.0000   0.0000   0.5432
  -1.000   0.3988   0.00776   0.00170  -0.1085  0.6435  0.3098  -0.8133   0.0000   0.0000   0.0000   0.5225
  -0.750   0.4269   0.00764   0.00169  -0.1087  0.6408  0.3448  -0.8297   0.0000   0.0000   0.0000   0.5044
  -0.500   0.4549   0.00755   0.00167  -0.1088  0.6381  0.3794  -0.8461   0.0000   0.0000   0.0000   0.4885
  -0.250   0.4828   0.00748   0.00167  -0.1089  0.6357  0.4113  -0.8627   0.0000   0.0000   0.0000   0.4744
   0.000   0.5109   0.00739   0.00167  -0.1090  0.6328  0.4438  -0.8811   0.0000   0.0000   0.0000   0.4619
   0.250   0.5389   0.00731   0.00168  -0.1092  0.6296  0.4754  -0.8994   0.0000   0.0000   0.0000   0.4506
   0.500   0.5668   0.00725   0.00169  -0.1093  0.6265  0.5069  -0.9177   0.0000   0.0000   0.0000   0.4405
   0.750   0.5944   0.00718   0.00172  -0.1093  0.6236  0.5466  -0.9359   0.0000   0.0000   0.0000   0.4312
   1.000   0.6222   0.00710   0.00175  -0.1094  0.6201  0.5862  -0.9542   0.0000   0.0000   0.0000   0.4228
   1.250   0.6496   0.00703   0.00179  -0.1094  0.6165  0.6265  -0.9744   0.0000   0.0000   0.0000   0.4151
   1.500   0.6766   0.00695   0.00183  -0.1093  0.6131  0.6731  -0.9944   0.0000   0.0000   0.0000   0.4079
   1.750   0.7034   0.00686   0.00189  -0.1091  0.6089  0.7225  -1.0143   0.0000   0.0000   0.0000   0.4012
   2.000   0.7297   0.00679   0.00194  -0.1088  0.6048  0.7681  -1.0340   0.0000   0.0000   0.0000   0.3949
   2.250   0.7559   0.00673   0.00200  -0.1085  0.6009  0.8125  -1.0552   0.0000   0.0000   0.0000   0.3890
   2.500   0.7816   0.00664   0.00206  -0.1080  0.5960  0.8639  -1.0769   0.0000   0.0000   0.0000   0.3833
   2.750   0.8194   0.00656   0.00215  -0.1102  0.5909  0.9398  -1.1058   0.0000   0.0000   0.0000   0.3793
   3.000   0.8730   0.00663   0.00221  -0.1161  0.5839  0.9922  -1.1455   0.0000   0.0000   0.0000   0.3776
   3.250   0.9041   0.00672   0.00228  -0.1170  0.5762  1.0001  -1.1734   0.0000   0.0000   0.0000   0.3737
   3.500   0.9296   0.00682   0.00235  -0.1166  0.5678  1.0001  -1.2026   0.0000   0.0000   0.0000   0.3694
   3.750   0.9548   0.00694   0.00243  -0.1161  0.5593  1.0001  -1.2369   0.0000   0.0000   0.0000   0.3653
   4.000   0.9799   0.00707   0.00252  -0.1157  0.5497  1.0001  -1.2720   0.0000   0.0000   0.0000   0.3614
   4.250   1.0049   0.00720   0.00263  -0.1153  0.5395  1.0001  -1.3073   0.0000   0.0000   0.0000   0.3578
   4.500   1.0300   0.00735   0.00274  -0.1148  0.5292  1.0001  -1.3427   0.0000   0.0000   0.0000   0.3542
   4.750   1.0550   0.00750   0.00287  -0.1144  0.5197  1.0001  -1.3783   0.0000   0.0000   0.0000   0.3509
   5.000   1.0796   0.00767   0.00301  -0.1139  0.5099  1.0001  -1.4138   0.0000   0.0000   0.0000   0.3476
   5.250   1.1039   0.00786   0.00317  -0.1134  0.4990  1.0001  -1.4519   0.0000   0.0000   0.0000   0.3445
   5.500   1.1280   0.00806   0.00334  -0.1128  0.4874  1.0001  -1.4909   0.0000   0.0000   0.0000   0.3415
   5.750   1.1513   0.00829   0.00353  -0.1121  0.4747  1.0001  -1.5294   0.0000   0.0000   0.0000   0.3386
   6.000   1.1733   0.00859   0.00377  -0.1112  0.4584  1.0001  -1.5672   0.0000   0.0000   0.0000   0.3356
   6.250   1.1941   0.00894   0.00404  -0.1101  0.4383  1.0001  -1.6050   0.0000   0.0000   0.0000   0.3327
   6.500   1.2148   0.00929   0.00432  -0.1090  0.4209  1.0001  -1.6885   0.0000   0.0000   0.0000   0.3299
   6.750   1.2351   0.00966   0.00462  -0.1078  0.4029  1.0001  -1.8012   0.0000   0.0000   0.0000   0.3271
   7.000   1.2507   0.01023   0.00505  -0.1058  0.3745  1.0001  -1.9070   0.0000   0.0000   0.0000   0.3241
   7.250   1.2632   0.01091   0.00555  -0.1034  0.3404  1.0001  -2.0124   0.0000   0.0000   0.0000   0.3210
   7.500   1.2735   0.01164   0.00611  -0.1006  0.3080  1.0001  -2.1137   0.0000   0.0000   0.0000   0.3178
   7.750   1.2807   0.01237   0.00670  -0.0972  0.2802  1.0001  -2.2082   0.0000   0.0000   0.0000   0.3143
   8.000   1.2884   0.01316   0.00737  -0.0941  0.2552  1.0001  -2.3050   0.0000   0.0000   0.0000   0.3111
   8.250   1.2970   0.01400   0.00810  -0.0915  0.2322  1.0001  -2.4054   0.0000   0.0000   0.0000   0.3082
   8.500   1.3045   0.01500   0.00898  -0.0889  0.2094  1.0001  -2.5033   0.0000   0.0000   0.0000   0.3054
   8.750   1.3126   0.01609   0.00997  -0.0866  0.1888  1.0001  -2.6038   0.0000   0.0000   0.0000   0.3028
   9.000   1.3233   0.01712   0.01093  -0.0849  0.1733  1.0001  -2.7126   0.0000   0.0000   0.0000   0.3006
   9.250   1.3340   0.01821   0.01197  -0.0834  0.1580  1.0001  -2.8229   0.0000   0.0000   0.0000   0.2985
   9.500   1.3436   0.01942   0.01311  -0.0818  0.1417  1.0001  -2.9305   0.0000   0.0000   0.0000   0.2964
   9.750   1.3511   0.02080   0.01441  -0.0800  0.1227  1.0001  -3.0332   0.0000   0.0000   0.0000   0.2944
  10.000   1.3558   0.02241   0.01590  -0.0781  0.1011  1.0001  -3.1273   0.0000   0.0000   0.0000   0.2923
  10.250   1.3600   0.02405   0.01745  -0.0761  0.0821  1.0001  -3.2207   0.0000   0.0000   0.0000   0.2902
  10.500   1.3661   0.02558   0.01891  -0.0744  0.0691  1.0001  -3.3209   0.0000   0.0000   0.0000   0.2882
  10.750   1.3744   0.02696   0.02026  -0.0729  0.0600  1.0001  -3.4292   0.0000   0.0000   0.0000   0.2864
  11.000   1.3832   0.02831   0.02160  -0.0716  0.0532  1.0001  -3.5405   0.0000   0.0000   0.0000   0.2846
  11.250   1.3924   0.02964   0.02293  -0.0702  0.0476  1.0001  -3.6540   0.0000   0.0000   0.0000   0.2828
  11.500   1.4016   0.03099   0.02427  -0.0690  0.0417  1.0001  -3.7685   0.0000   0.0000   0.0000   0.2811
  11.750   1.4095   0.03244   0.02571  -0.0676  0.0354  1.0001  -3.8818   0.0000   0.0000   0.0000   0.2794
  12.000   1.4169   0.03394   0.02720  -0.0663  0.0301  1.0001  -4.0006   0.0000   0.0000   0.0000   0.2778
  12.250   1.4247   0.03546   0.02873  -0.0651  0.0263  1.0001  -4.1218   0.0000   0.0000   0.0000   0.2762
  12.500   1.4325   0.03701   0.03029  -0.0639  0.0235  1.0001  -4.2441   0.0000   0.0000   0.0000   0.2746
  12.750   1.4412   0.03851   0.03183  -0.0628  0.0215  1.0001  -4.3707   0.0000   0.0000   0.0000   0.2731
  13.000   1.4491   0.04011   0.03345  -0.0618  0.0198  1.0001  -4.4955   0.0000   0.0000   0.0000   0.2716
  13.250   1.4579   0.04168   0.03507  -0.0608  0.0184  1.0001  -4.6241   0.0000   0.0000   0.0000   0.2702
  13.500   1.4653   0.04337   0.03679  -0.0598  0.0172  1.0001  -4.7492   0.0000   0.0000   0.0000   0.2689
  13.750   1.4735   0.04504   0.03850  -0.0590  0.0163  1.0001  -4.8777   0.0000   0.0000   0.0000   0.2675
  14.000   1.4812   0.04678   0.04029  -0.0581  0.0155  1.0001  -5.0055   0.0000   0.0000   0.0000   0.2662
  14.250   1.4881   0.04862   0.04217  -0.0573  0.0148  1.0001  -5.1314   0.0000   0.0000   0.0000   0.2650
  14.500   1.4940   0.05057   0.04416  -0.0565  0.0141  1.0001  -5.2547   0.0000   0.0000   0.0000   0.2637
  14.750   1.5007   0.05248   0.04613  -0.0557  0.0137  1.0001  -5.3907   0.0000   0.0000   0.0000   0.2625
  15.000   1.5070   0.05446   0.04817  -0.0551  0.0134  1.0001  -5.5259   0.0000   0.0000   0.0000   0.2614
  15.250   1.5127   0.05652   0.05029  -0.0544  0.0131  1.0001  -5.6593   0.0000   0.0000   0.0000   0.2603
  15.500   1.5176   0.05869   0.05252  -0.0538  0.0128  1.0001  -5.7897   0.0000   0.0000   0.0000   0.2592
  15.750   1.5217   0.06098   0.05487  -0.0532  0.0125  1.0001  -5.9175   0.0000   0.0000   0.0000   0.2581
  16.000   1.5253   0.06336   0.05731  -0.0527  0.0122  1.0001  -6.0431   0.0000   0.0000   0.0000   0.2572
  16.250   1.5280   0.06587   0.05988  -0.0522  0.0120  1.0001  -6.1728   0.0000   0.0000   0.0000   0.2562
  16.500   1.5294   0.06854   0.06262  -0.0517  0.0118  1.0001  -6.2964   0.0000   0.0000   0.0000   0.2553
  17.000   1.5312   0.07417   0.06840  -0.0511  0.0114  1.0001  -6.5377   0.0000   0.0000   0.0000   0.2537
  17.250   1.5327   0.07697   0.07128  -0.0509  0.0113  1.0001  -6.6629   0.0000   0.0000   0.0000   0.2529
  17.500   1.5335   0.07986   0.07426  -0.0508  0.0111  1.0001  -6.7848   0.0000   0.0000   0.0000   0.2522
  17.750   1.5337   0.08288   0.07736  -0.0507  0.0110  1.0001  -6.9034   0.0000   0.0000   0.0000   0.2516
  18.000   1.5333   0.08601   0.08057  -0.0508  0.0108  1.0001  -7.0422   0.0000   0.0000   0.0000   0.2510
  18.250   1.5322   0.08926   0.08391  -0.0509  0.0107  1.0001  -7.1807   0.0000   0.0000   0.0000   0.2505
  18.500   1.5303   0.09265   0.08738  -0.0512  0.0105  1.0001  -7.3132   0.0000   0.0000   0.0000   0.2501
  18.750   1.5278   0.09616   0.09098  -0.0515  0.0104  1.0001  -7.4409   0.0000   0.0000   0.0000   0.2497
  19.000   1.5247   0.09977   0.09468  -0.0520  0.0103  1.0001  -7.5644   0.0000   0.0000   0.0000   0.2495
  19.250   1.5212   0.10351   0.09850  -0.0525  0.0102  1.0001  -7.6837   0.0000   0.0000   0.0000   0.2493
  19.500   1.5173   0.10734   0.10241  -0.0532  0.0101  1.0001  -7.7982   0.0000   0.0000   0.0000   0.2492
  19.750   1.5128   0.11126   0.10642  -0.0541  0.0100  1.0001  -7.9079   0.0000   0.0000   0.0000   0.2492
  20.000   1.5080   0.11527   0.11052  -0.0550  0.0098  1.0001  -8.0134   0.0000   0.0000   0.0000   0.2493


