xflr5 v6.61

 Calculated polar for: QX0026 v32

 1 1 Reynolds number fixed          Mach number fixed         

 xtrf =   1.000 (top)        1.000 (bottom)
 Mach =   0.000     Re =     0.140 e 6     Ncrit =   5.000

  alpha     CL        CD       CDp       Cm    Top Xtr Bot Xtr   Cpmin    Chinge    XCp    
 ------- -------- --------- --------- -------- ------- ------- -------- --------- ---------
 -10.000  -0.2572   0.08323   0.07833  -0.0815  0.8120  0.0240  -3.0855   0.0000   0.0000   0.0000  -0.0963
  -9.750  -0.2724   0.07514   0.07029  -0.0865  0.8088  0.0239  -3.3891   0.0000   0.0000   0.0000  -0.0952
  -9.500  -0.3413   0.05196   0.04693  -0.1084  0.8050  0.0228  -4.4919   0.0000   0.0000   0.0000  -0.0903
  -9.250  -0.3693   0.04469   0.03919  -0.1137  0.8007  0.0226  -4.7946   0.0000   0.0000   0.0000  -0.0786
  -9.000  -0.3755   0.03992   0.03392  -0.1151  0.7970  0.0229  -4.9057   0.0000   0.0000   0.0000  -0.0764
  -8.750  -0.3721   0.03607   0.02952  -0.1152  0.7942  0.0235  -4.9421   0.0000   0.0000   0.0000  -0.0794
  -8.500  -0.3633   0.03267   0.02549  -0.1150  0.7908  0.0244  -4.9682   0.0000   0.0000   0.0000  -0.0861
  -8.250  -0.3449   0.03124   0.02388  -0.1148  0.7877  0.0253  -4.8127   0.0000   0.0000   0.0000  -0.1028
  -8.000  -0.3244   0.03016   0.02261  -0.1146  0.7850  0.0266  -4.6334   0.0000   0.0000   0.0000  -0.1236
  -7.750  -0.3050   0.02840   0.02042  -0.1141  0.7823  0.0283  -4.5338   0.0000   0.0000   0.0000  -0.1450
  -7.500  -0.2838   0.02707   0.01890  -0.1138  0.7791  0.0294  -4.3862   0.0000   0.0000   0.0000  -0.1726
  -7.250  -0.2610   0.02606   0.01776  -0.1135  0.7764  0.0306  -4.2117   0.0000   0.0000   0.0000  -0.2073
  -7.000  -0.2376   0.02498   0.01636  -0.1131  0.7741  0.0328  -4.0588   0.0000   0.0000   0.0000  -0.2497
  -6.750  -0.2141   0.02426   0.01561  -0.1129  0.7715  0.0347  -3.8622   0.0000   0.0000   0.0000  -0.3027
  -6.500  -0.1902   0.02341   0.01461  -0.1126  0.7685  0.0369  -3.6949   0.0000   0.0000   0.0000  -0.3690
  -6.250  -0.1661   0.02262   0.01373  -0.1123  0.7660  0.0389  -3.5174   0.0000   0.0000   0.0000  -0.4555
  -6.000  -0.1411   0.02200   0.01296  -0.1120  0.7638  0.0421  -3.3328   0.0000   0.0000   0.0000  -0.5770
  -5.750  -0.1168   0.02141   0.01236  -0.1117  0.7612  0.0449  -3.1474   0.0000   0.0000   0.0000  -0.7447
  -5.500  -0.0925   0.02085   0.01170  -0.1114  0.7584  0.0483  -2.9745   0.0000   0.0000   0.0000  -1.0008
  -5.250  -0.0675   0.02038   0.01118  -0.1111  0.7559  0.0526  -2.7898   0.0000   0.0000   0.0000  -1.4556
  -5.000  -0.0422   0.01989   0.01065  -0.1109  0.7537  0.0575  -2.6078   0.0000   0.0000   0.0000  -2.4680
  -4.750  -0.0171   0.01948   0.01020  -0.1107  0.7513  0.0636  -2.4301   0.0000   0.0000   0.0000  -6.4296
  -4.500   0.0075   0.01912   0.00982  -0.1103  0.7481  0.0714  -2.2583   0.0000   0.0000   0.0000  15.3900
  -4.250   0.0328   0.01874   0.00946  -0.1101  0.7454  0.0816  -2.0997   0.0000   0.0000   0.0000   3.7094
  -4.000   0.0587   0.01836   0.00908  -0.1100  0.7432  0.0961  -1.9421   0.0000   0.0000   0.0000   2.1735
  -3.750   0.0842   0.01804   0.00881  -0.1098  0.7407  0.1168  -1.7876   0.0000   0.0000   0.0000   1.5870
  -3.500   0.1089   0.01778   0.00866  -0.1095  0.7375  0.1451  -1.6371   0.0000   0.0000   0.0000   1.2798
  -3.250   0.1344   0.01750   0.00848  -0.1094  0.7349  0.1812  -1.4910   0.0000   0.0000   0.0000   1.0814
  -3.000   0.1606   0.01721   0.00830  -0.1093  0.7328  0.2250  -1.3556   0.0000   0.0000   0.0000   0.9442
  -2.750   0.1862   0.01698   0.00822  -0.1091  0.7305  0.2736  -1.2343   0.0000   0.0000   0.0000   0.8465
  -2.500   0.2104   0.01686   0.00828  -0.1087  0.7271  0.3246  -1.1190   0.0000   0.0000   0.0000   0.7754
  -2.250   0.2358   0.01672   0.00826  -0.1085  0.7245  0.3762  -1.0081   0.0000   0.0000   0.0000   0.7167
  -2.000   0.2620   0.01655   0.00819  -0.1082  0.7224  0.4254  -0.9025   0.0000   0.0000   0.0000   0.6682
  -1.750   0.2877   0.01641   0.00818  -0.1078  0.7200  0.4736  -0.8004   0.0000   0.0000   0.0000   0.6289
  -1.500   0.3111   0.01639   0.00831  -0.1071  0.7160  0.5220  -0.7429   0.0000   0.0000   0.0000   0.5976
  -1.250   0.3364   0.01628   0.00833  -0.1066  0.7133  0.5728  -0.7574   0.0000   0.0000   0.0000   0.5692
  -1.000   0.3625   0.01613   0.00830  -0.1061  0.7112  0.6252  -0.7727   0.0000   0.0000   0.0000   0.5442
  -0.750   0.3865   0.01612   0.00844  -0.1053  0.7080  0.6778  -0.7869   0.0000   0.0000   0.0000   0.5233
  -0.500   0.4105   0.01613   0.00859  -0.1045  0.7045  0.7323  -0.8022   0.0000   0.0000   0.0000   0.5047
  -0.250   0.4371   0.01604   0.00861  -0.1039  0.7021  0.7912  -0.8195   0.0000   0.0000   0.0000   0.4874
   0.000   0.4692   0.01590   0.00855  -0.1043  0.7001  0.8588  -0.8400   0.0000   0.0000   0.0000   0.4714
   0.250   0.5171   0.01597   0.00868  -0.1085  0.6964  0.9342  -0.8676   0.0000   0.0000   0.0000   0.4585
   0.500   0.5658   0.01604   0.00869  -0.1131  0.6931  1.0001  -0.8962   0.0000   0.0000   0.0000   0.4481
   0.750   0.5914   0.01610   0.00864  -0.1128  0.6906  1.0001  -0.9146   0.0000   0.0000   0.0000   0.4386
   1.000   0.6161   0.01623   0.00869  -0.1123  0.6877  1.0001  -0.9326   0.0000   0.0000   0.0000   0.4299
   1.250   0.6377   0.01651   0.00894  -0.1115  0.6833  1.0001  -0.9483   0.0000   0.0000   0.0000   0.4220
   1.500   0.6638   0.01659   0.00895  -0.1113  0.6805  1.0001  -0.9674   0.0000   0.0000   0.0000   0.4144
   1.750   0.6920   0.01658   0.00885  -0.1113  0.6783  1.0001  -0.9882   0.0000   0.0000   0.0000   0.4073
   2.000   0.7117   0.01694   0.00923  -0.1102  0.6726  1.0001  -1.0045   0.0000   0.0000   0.0000   0.4009
   2.250   0.7384   0.01700   0.00924  -0.1100  0.6696  1.0001  -1.0264   0.0000   0.0000   0.0000   0.3948
   2.500   0.7656   0.01706   0.00925  -0.1099  0.6669  1.0001  -1.0488   0.0000   0.0000   0.0000   0.3891
   2.750   0.7861   0.01741   0.00963  -0.1089  0.6615  1.0001  -1.0663   0.0000   0.0000   0.0000   0.3837
   3.000   0.8135   0.01743   0.00962  -0.1088  0.6584  1.0001  -1.0916   0.0000   0.0000   0.0000   0.3786
   3.250   0.8368   0.01763   0.00983  -0.1082  0.6538  1.0001  -1.1139   0.0000   0.0000   0.0000   0.3738
   3.500   0.8614   0.01776   0.00996  -0.1077  0.6493  1.0001  -1.1408   0.0000   0.0000   0.0000   0.3693
   3.750   0.8904   0.01772   0.00990  -0.1078  0.6466  1.0001  -1.1743   0.0000   0.0000   0.0000   0.3650
   4.000   0.9101   0.01807   0.01031  -0.1067  0.6405  1.0001  -1.2025   0.0000   0.0000   0.0000   0.3608
   4.250   0.9381   0.01803   0.01026  -0.1067  0.6368  1.0001  -1.2390   0.0000   0.0000   0.0000   0.3570
   4.500   0.9596   0.01828   0.01055  -0.1057  0.6309  1.0001  -1.2706   0.0000   0.0000   0.0000   0.3532
   4.750   0.9862   0.01829   0.01058  -0.1055  0.6264  1.0001  -1.3070   0.0000   0.0000   0.0000   0.3496
   5.000   1.0080   0.01849   0.01084  -0.1046  0.6203  1.0001  -1.3393   0.0000   0.0000   0.0000   0.3461
   5.250   1.0347   0.01844   0.01080  -0.1043  0.6151  1.0001  -1.3764   0.0000   0.0000   0.0000   0.3428
   5.500   1.0551   0.01866   0.01108  -0.1032  0.6077  1.0001  -1.4090   0.0000   0.0000   0.0000   0.3394
   5.750   1.0816   0.01858   0.01102  -0.1028  0.6017  1.0001  -1.4500   0.0000   0.0000   0.0000   0.3364
   6.000   1.1040   0.01867   0.01116  -0.1019  0.5939  1.0001  -1.4872   0.0000   0.0000   0.0000   0.3333
   6.250   1.1240   0.01888   0.01144  -0.1007  0.5856  1.0001  -1.5224   0.0000   0.0000   0.0000   0.3302
   6.500   1.1462   0.01901   0.01162  -0.0998  0.5778  1.0001  -1.5602   0.0000   0.0000   0.0000   0.3273
   6.750   1.1711   0.01902   0.01166  -0.0992  0.5705  1.0001  -1.6152   0.0000   0.0000   0.0000   0.3247
   7.000   1.1901   0.01926   0.01199  -0.0979  0.5612  1.0001  -1.7225   0.0000   0.0000   0.0000   0.3218
   7.250   1.2096   0.01950   0.01228  -0.0966  0.5517  1.0001  -1.8330   0.0000   0.0000   0.0000   0.3190
   7.500   1.2290   0.01975   0.01259  -0.0952  0.5421  1.0001  -1.9450   0.0000   0.0000   0.0000   0.3163
   7.750   1.2475   0.02001   0.01291  -0.0938  0.5320  1.0001  -2.0571   0.0000   0.0000   0.0000   0.3137
   8.000   1.2644   0.02029   0.01325  -0.0921  0.5214  1.0001  -2.1701   0.0000   0.0000   0.0000   0.3109
   8.250   1.2815   0.02060   0.01358  -0.0904  0.5101  1.0001  -2.2901   0.0000   0.0000   0.0000   0.3082
   8.500   1.2977   0.02096   0.01398  -0.0886  0.4978  1.0001  -2.4096   0.0000   0.0000   0.0000   0.3056
   8.750   1.3134   0.02136   0.01439  -0.0869  0.4839  1.0001  -2.5299   0.0000   0.0000   0.0000   0.3031
   9.000   1.3247   0.02199   0.01502  -0.0846  0.4673  1.0001  -2.6389   0.0000   0.0000   0.0000   0.3004
   9.250   1.3352   0.02269   0.01568  -0.0824  0.4483  1.0001  -2.7475   0.0000   0.0000   0.0000   0.2978
   9.500   1.3428   0.02360   0.01653  -0.0800  0.4266  1.0001  -2.8486   0.0000   0.0000   0.0000   0.2952
   9.750   1.3484   0.02472   0.01758  -0.0775  0.4039  1.0001  -2.9441   0.0000   0.0000   0.0000   0.2927
  10.000   1.3536   0.02597   0.01876  -0.0752  0.3821  1.0001  -3.0389   0.0000   0.0000   0.0000   0.2903
  10.250   1.3577   0.02736   0.02008  -0.0729  0.3606  1.0001  -3.1308   0.0000   0.0000   0.0000   0.2880
  10.500   1.3603   0.02890   0.02155  -0.0707  0.3387  1.0001  -3.2184   0.0000   0.0000   0.0000   0.2858
  10.750   1.3614   0.03062   0.02318  -0.0684  0.3161  1.0001  -3.3012   0.0000   0.0000   0.0000   0.2836
  11.000   1.3610   0.03250   0.02495  -0.0662  0.2940  1.0001  -3.3796   0.0000   0.0000   0.0000   0.2815
  11.250   1.3606   0.03445   0.02683  -0.0641  0.2719  1.0001  -3.4579   0.0000   0.0000   0.0000   0.2795
  11.500   1.3600   0.03648   0.02879  -0.0621  0.2515  1.0001  -3.5350   0.0000   0.0000   0.0000   0.2775
  11.750   1.3594   0.03856   0.03081  -0.0603  0.2316  1.0001  -3.6122   0.0000   0.0000   0.0000   0.2757
  12.000   1.3582   0.04076   0.03293  -0.0585  0.2124  1.0001  -3.6871   0.0000   0.0000   0.0000   0.2739
  12.250   1.3570   0.04303   0.03515  -0.0568  0.1933  1.0001  -3.7660   0.0000   0.0000   0.0000   0.2723
  12.500   1.3556   0.04541   0.03746  -0.0553  0.1744  1.0001  -3.8458   0.0000   0.0000   0.0000   0.2707
  12.750   1.3545   0.04787   0.03987  -0.0539  0.1549  1.0001  -3.9257   0.0000   0.0000   0.0000   0.2692
  13.000   1.3528   0.05045   0.04239  -0.0527  0.1349  1.0001  -4.0032   0.0000   0.0000   0.0000   0.2678
  13.250   1.3501   0.05322   0.04508  -0.0515  0.1154  1.0001  -4.0761   0.0000   0.0000   0.0000   0.2665
  13.500   1.3464   0.05617   0.04795  -0.0504  0.0982  1.0001  -4.1438   0.0000   0.0000   0.0000   0.2653
  13.750   1.3432   0.05914   0.05087  -0.0494  0.0847  1.0001  -4.2126   0.0000   0.0000   0.0000   0.2641
  14.000   1.3402   0.06218   0.05389  -0.0486  0.0745  1.0001  -4.2805   0.0000   0.0000   0.0000   0.2630
  14.250   1.3382   0.06518   0.05691  -0.0478  0.0664  1.0001  -4.3512   0.0000   0.0000   0.0000   0.2620
  14.500   1.3363   0.06825   0.06003  -0.0473  0.0600  1.0001  -4.4206   0.0000   0.0000   0.0000   0.2611
  14.750   1.3343   0.07141   0.06325  -0.0468  0.0549  1.0001  -4.4881   0.0000   0.0000   0.0000   0.2603
  15.000   1.3319   0.07468   0.06658  -0.0464  0.0507  1.0001  -4.5525   0.0000   0.0000   0.0000   0.2596
  15.250   1.3288   0.07811   0.07008  -0.0462  0.0475  1.0001  -4.6155   0.0000   0.0000   0.0000   0.2590
  15.500   1.3268   0.08146   0.07354  -0.0461  0.0444  1.0001  -4.6861   0.0000   0.0000   0.0000   0.2584
  15.750   1.3238   0.08502   0.07718  -0.0461  0.0420  1.0001  -4.7514   0.0000   0.0000   0.0000   0.2579
  16.000   1.3210   0.08857   0.08083  -0.0462  0.0398  1.0001  -4.8174   0.0000   0.0000   0.0000   0.2575
  16.250   1.3175   0.09229   0.08463  -0.0465  0.0381  1.0001  -4.8793   0.0000   0.0000   0.0000   0.2573
  16.500   1.3153   0.09587   0.08833  -0.0468  0.0363  1.0001  -4.9448   0.0000   0.0000   0.0000   0.2570
  16.750   1.3121   0.09964   0.09217  -0.0473  0.0349  1.0001  -5.0075   0.0000   0.0000   0.0000   0.2570
  17.000   1.3097   0.10331   0.09594  -0.0479  0.0337  1.0001  -5.0700   0.0000   0.0000   0.0000   0.2569
  17.250   1.3082   0.10688   0.09962  -0.0485  0.0324  1.0001  -5.1412   0.0000   0.0000   0.0000   0.2568
  17.500   1.3064   0.11052   0.10334  -0.0492  0.0314  1.0001  -5.2147   0.0000   0.0000   0.0000   0.2569
  17.750   1.3045   0.11416   0.10704  -0.0501  0.0306  1.0001  -5.2878   0.0000   0.0000   0.0000   0.2570
  18.000   1.3052   0.11740   0.11039  -0.0507  0.0298  1.0001  -5.3679   0.0000   0.0000   0.0000   0.2569
  18.250   1.3063   0.12056   0.11366  -0.0514  0.0290  1.0001  -5.4507   0.0000   0.0000   0.0000   0.2568
  18.500   1.3078   0.12367   0.11685  -0.0522  0.0283  1.0001  -5.5363   0.0000   0.0000   0.0000   0.2568
  18.750   1.3097   0.12670   0.11995  -0.0531  0.0276  1.0001  -5.6259   0.0000   0.0000   0.0000   0.2568
  19.000   1.3123   0.12955   0.12283  -0.0539  0.0271  1.0001  -5.7260   0.0000   0.0000   0.0000   0.2567
  19.250   1.3158   0.13226   0.12562  -0.0547  0.0265  1.0001  -5.8340   0.0000   0.0000   0.0000   0.2566
  19.500   1.3187   0.13520   0.12871  -0.0556  0.0259  1.0001  -5.9509   0.0000   0.0000   0.0000   0.2566
  19.750   1.3211   0.13824   0.13188  -0.0567  0.0252  1.0001  -6.0659   0.0000   0.0000   0.0000   0.2567
  20.000   1.3231   0.14137   0.13511  -0.0580  0.0246  1.0001  -6.1798   0.0000   0.0000   0.0000   0.2570


