xflr5 v6.61

 Calculated polar for: QX0026 v32

 1 1 Reynolds number fixed          Mach number fixed         

 xtrf =   1.000 (top)        1.000 (bottom)
 Mach =   0.000     Re =     0.700 e 6     Ncrit =   5.000

  alpha     CL        CD       CDp       Cm    Top Xtr Bot Xtr   Cpmin    Chinge    XCp    
 ------- -------- --------- --------- -------- ------- ------- -------- --------- ---------
 -10.000  -0.5814   0.01760   0.01155  -0.1068  0.7230  0.0094  -8.1026   0.0000   0.0000   0.0000   0.0497
  -9.750  -0.5568   0.01706   0.01092  -0.1067  0.7212  0.0097  -7.7859   0.0000   0.0000   0.0000   0.0419
  -9.500  -0.5317   0.01655   0.01034  -0.1066  0.7191  0.0101  -7.4714   0.0000   0.0000   0.0000   0.0330
  -9.250  -0.5064   0.01605   0.00977  -0.1065  0.7168  0.0105  -7.1624   0.0000   0.0000   0.0000   0.0231
  -9.000  -0.4808   0.01558   0.00922  -0.1064  0.7145  0.0109  -6.8585   0.0000   0.0000   0.0000   0.0120
  -8.750  -0.4550   0.01516   0.00870  -0.1063  0.7126  0.0113  -6.5761   0.0000   0.0000   0.0000  -0.0005
  -8.500  -0.4295   0.01468   0.00815  -0.1062  0.7109  0.0118  -6.3060   0.0000   0.0000   0.0000  -0.0143
  -8.250  -0.4033   0.01428   0.00771  -0.1061  0.7092  0.0124  -6.0288   0.0000   0.0000   0.0000  -0.0306
  -8.000  -0.3767   0.01392   0.00731  -0.1061  0.7072  0.0131  -5.7550   0.0000   0.0000   0.0000  -0.0495
  -7.750  -0.3500   0.01358   0.00691  -0.1061  0.7051  0.0138  -5.4876   0.0000   0.0000   0.0000  -0.0714
  -7.500  -0.3232   0.01325   0.00652  -0.1061  0.7031  0.0145  -5.2245   0.0000   0.0000   0.0000  -0.0971
  -7.250  -0.2964   0.01293   0.00617  -0.1061  0.7012  0.0154  -4.9605   0.0000   0.0000   0.0000  -0.1274
  -7.000  -0.2693   0.01267   0.00585  -0.1061  0.6997  0.0165  -4.7005   0.0000   0.0000   0.0000  -0.1644
  -6.750  -0.2418   0.01241   0.00555  -0.1062  0.6978  0.0174  -4.4473   0.0000   0.0000   0.0000  -0.2106
  -6.500  -0.2147   0.01210   0.00523  -0.1062  0.6959  0.0186  -4.1989   0.0000   0.0000   0.0000  -0.2677
  -6.250  -0.1872   0.01186   0.00496  -0.1063  0.6941  0.0198  -3.9542   0.0000   0.0000   0.0000  -0.3427
  -6.000  -0.1596   0.01163   0.00468  -0.1063  0.6922  0.0212  -3.7151   0.0000   0.0000   0.0000  -0.4438
  -5.750  -0.1322   0.01139   0.00443  -0.1063  0.6904  0.0229  -3.4795   0.0000   0.0000   0.0000  -0.5864
  -5.500  -0.1044   0.01121   0.00419  -0.1064  0.6885  0.0246  -3.2499   0.0000   0.0000   0.0000  -0.8071
  -5.250  -0.0768   0.01097   0.00396  -0.1065  0.6862  0.0267  -3.0255   0.0000   0.0000   0.0000  -1.1861
  -5.000  -0.0488   0.01078   0.00375  -0.1066  0.6840  0.0290  -2.8062   0.0000   0.0000   0.0000  -2.0038
  -4.750  -0.0211   0.01058   0.00354  -0.1067  0.6820  0.0317  -2.5926   0.0000   0.0000   0.0000  -4.9734
  -4.500   0.0068   0.01040   0.00334  -0.1067  0.6803  0.0347  -2.3845   0.0000   0.0000   0.0000  16.2941
  -4.250   0.0348   0.01025   0.00317  -0.1068  0.6786  0.0389  -2.1817   0.0000   0.0000   0.0000   3.4060
  -4.000   0.0628   0.01008   0.00301  -0.1070  0.6767  0.0439  -1.9935   0.0000   0.0000   0.0000   1.9954
  -3.750   0.0909   0.00991   0.00286  -0.1071  0.6745  0.0503  -1.8182   0.0000   0.0000   0.0000   1.4555
  -3.500   0.1189   0.00975   0.00272  -0.1072  0.6726  0.0595  -1.6478   0.0000   0.0000   0.0000   1.1705
  -3.250   0.1469   0.00958   0.00259  -0.1073  0.6706  0.0715  -1.4855   0.0000   0.0000   0.0000   0.9947
  -3.000   0.1747   0.00941   0.00246  -0.1074  0.6686  0.0878  -1.3480   0.0000   0.0000   0.0000   0.8755
  -2.750   0.2026   0.00924   0.00235  -0.1075  0.6663  0.1083  -1.2185   0.0000   0.0000   0.0000   0.7890
  -2.500   0.2305   0.00907   0.00227  -0.1077  0.6637  0.1316  -1.0921   0.0000   0.0000   0.0000   0.7234
  -2.250   0.2585   0.00892   0.00218  -0.1078  0.6613  0.1559  -0.9764   0.0000   0.0000   0.0000   0.6719
  -2.000   0.2864   0.00877   0.00210  -0.1079  0.6592  0.1831  -0.8668   0.0000   0.0000   0.0000   0.6305
  -1.750   0.3142   0.00862   0.00204  -0.1080  0.6572  0.2162  -0.7634   0.0000   0.0000   0.0000   0.5966
  -1.500   0.3419   0.00844   0.00199  -0.1082  0.6548  0.2573  -0.7794   0.0000   0.0000   0.0000   0.5682
  -1.250   0.3698   0.00829   0.00196  -0.1083  0.6520  0.2954  -0.7956   0.0000   0.0000   0.0000   0.5440
  -1.000   0.3975   0.00815   0.00193  -0.1084  0.6493  0.3371  -0.8119   0.0000   0.0000   0.0000   0.5232
  -0.750   0.4254   0.00805   0.00190  -0.1085  0.6470  0.3711  -0.8283   0.0000   0.0000   0.0000   0.5050
  -0.500   0.4533   0.00795   0.00190  -0.1086  0.6445  0.4064  -0.8446   0.0000   0.0000   0.0000   0.4890
  -0.250   0.4813   0.00786   0.00190  -0.1088  0.6416  0.4386  -0.8614   0.0000   0.0000   0.0000   0.4749
   0.000   0.5091   0.00777   0.00190  -0.1088  0.6388  0.4744  -0.8796   0.0000   0.0000   0.0000   0.4623
   0.250   0.5369   0.00770   0.00190  -0.1089  0.6361  0.5065  -0.8978   0.0000   0.0000   0.0000   0.4509
   0.500   0.5646   0.00762   0.00192  -0.1090  0.6331  0.5448  -0.9159   0.0000   0.0000   0.0000   0.4407
   0.750   0.5921   0.00753   0.00196  -0.1090  0.6299  0.5875  -0.9340   0.0000   0.0000   0.0000   0.4314
   1.000   0.6194   0.00745   0.00199  -0.1089  0.6267  0.6276  -0.9522   0.0000   0.0000   0.0000   0.4229
   1.250   0.6463   0.00738   0.00203  -0.1088  0.6237  0.6736  -0.9721   0.0000   0.0000   0.0000   0.4151
   1.500   0.6730   0.00728   0.00209  -0.1086  0.6199  0.7234  -0.9918   0.0000   0.0000   0.0000   0.4078
   1.750   0.6992   0.00719   0.00214  -0.1083  0.6161  0.7717  -1.0114   0.0000   0.0000   0.0000   0.4009
   2.000   0.7252   0.00712   0.00219  -0.1079  0.6126  0.8178  -1.0310   0.0000   0.0000   0.0000   0.3945
   2.250   0.7512   0.00700   0.00225  -0.1074  0.6083  0.8720  -1.0521   0.0000   0.0000   0.0000   0.3885
   2.500   0.7963   0.00695   0.00232  -0.1112  0.6040  0.9493  -1.0851   0.0000   0.0000   0.0000   0.3848
   2.750   0.8453   0.00700   0.00238  -0.1161  0.5988  0.9943  -1.1203   0.0000   0.0000   0.0000   0.3822
   3.000   0.8755   0.00709   0.00243  -0.1167  0.5934  1.0001  -1.1466   0.0000   0.0000   0.0000   0.3779
   3.250   0.9015   0.00716   0.00250  -0.1164  0.5872  1.0001  -1.1713   0.0000   0.0000   0.0000   0.3735
   3.500   0.9270   0.00726   0.00256  -0.1161  0.5800  1.0001  -1.2005   0.0000   0.0000   0.0000   0.3692
   3.750   0.9525   0.00736   0.00264  -0.1157  0.5715  1.0001  -1.2347   0.0000   0.0000   0.0000   0.3651
   4.000   0.9780   0.00746   0.00272  -0.1153  0.5630  1.0001  -1.2701   0.0000   0.0000   0.0000   0.3613
   4.250   1.0032   0.00759   0.00282  -0.1149  0.5539  1.0001  -1.3055   0.0000   0.0000   0.0000   0.3576
   4.500   1.0282   0.00773   0.00293  -0.1144  0.5443  1.0001  -1.3409   0.0000   0.0000   0.0000   0.3541
   4.750   1.0531   0.00787   0.00305  -0.1140  0.5346  1.0001  -1.3764   0.0000   0.0000   0.0000   0.3507
   5.000   1.0780   0.00803   0.00319  -0.1136  0.5253  1.0001  -1.4120   0.0000   0.0000   0.0000   0.3475
   5.250   1.1024   0.00821   0.00334  -0.1130  0.5153  1.0001  -1.4500   0.0000   0.0000   0.0000   0.3444
   5.500   1.1263   0.00841   0.00351  -0.1124  0.5046  1.0001  -1.4889   0.0000   0.0000   0.0000   0.3413
   5.750   1.1502   0.00861   0.00370  -0.1118  0.4934  1.0001  -1.5278   0.0000   0.0000   0.0000   0.3384
   6.000   1.1734   0.00885   0.00390  -0.1111  0.4801  1.0001  -1.5665   0.0000   0.0000   0.0000   0.3356
   6.250   1.1945   0.00918   0.00416  -0.1101  0.4632  1.0001  -1.6047   0.0000   0.0000   0.0000   0.3327
   6.500   1.2150   0.00953   0.00444  -0.1089  0.4439  1.0001  -1.6872   0.0000   0.0000   0.0000   0.3298
   6.750   1.2350   0.00990   0.00475  -0.1077  0.4267  1.0001  -1.7992   0.0000   0.0000   0.0000   0.3270
   7.000   1.2536   0.01032   0.00510  -0.1062  0.4080  1.0001  -1.9109   0.0000   0.0000   0.0000   0.3242
   7.250   1.2681   0.01091   0.00555  -0.1041  0.3793  1.0001  -2.0215   0.0000   0.0000   0.0000   0.3212
   7.500   1.2792   0.01161   0.00610  -0.1014  0.3474  1.0001  -2.1251   0.0000   0.0000   0.0000   0.3181
   7.750   1.2857   0.01237   0.00670  -0.0979  0.3165  1.0001  -2.2179   0.0000   0.0000   0.0000   0.3146
   8.000   1.2913   0.01323   0.00741  -0.0945  0.2876  1.0001  -2.3091   0.0000   0.0000   0.0000   0.3112
   8.250   1.2977   0.01417   0.00821  -0.0915  0.2614  1.0001  -2.4033   0.0000   0.0000   0.0000   0.3081
   8.500   1.3049   0.01517   0.00910  -0.0888  0.2375  1.0001  -2.5003   0.0000   0.0000   0.0000   0.3053
   8.750   1.3114   0.01634   0.01016  -0.0864  0.2146  1.0001  -2.5961   0.0000   0.0000   0.0000   0.3027
   9.000   1.3193   0.01755   0.01127  -0.0844  0.1939  1.0001  -2.6965   0.0000   0.0000   0.0000   0.3004
   9.250   1.3297   0.01868   0.01234  -0.0828  0.1790  1.0001  -2.8052   0.0000   0.0000   0.0000   0.2983
   9.500   1.3394   0.01989   0.01349  -0.0813  0.1632  1.0001  -2.9132   0.0000   0.0000   0.0000   0.2962
   9.750   1.3485   0.02116   0.01470  -0.0797  0.1477  1.0001  -3.0202   0.0000   0.0000   0.0000   0.2942
  10.000   1.3560   0.02257   0.01603  -0.0780  0.1297  1.0001  -3.1234   0.0000   0.0000   0.0000   0.2922
  10.250   1.3607   0.02417   0.01753  -0.0761  0.1093  1.0001  -3.2184   0.0000   0.0000   0.0000   0.2901
  10.500   1.3637   0.02592   0.01917  -0.0741  0.0893  1.0001  -3.3085   0.0000   0.0000   0.0000   0.2881
  10.750   1.3677   0.02762   0.02079  -0.0723  0.0741  1.0001  -3.4021   0.0000   0.0000   0.0000   0.2861
  11.000   1.3742   0.02914   0.02228  -0.0707  0.0637  1.0001  -3.5049   0.0000   0.0000   0.0000   0.2843
  11.250   1.3817   0.03061   0.02373  -0.0693  0.0560  1.0001  -3.6120   0.0000   0.0000   0.0000   0.2825
  11.500   1.3900   0.03203   0.02515  -0.0680  0.0499  1.0001  -3.7224   0.0000   0.0000   0.0000   0.2808
  11.750   1.3980   0.03348   0.02660  -0.0666  0.0441  1.0001  -3.8330   0.0000   0.0000   0.0000   0.2791
  12.000   1.4055   0.03500   0.02812  -0.0654  0.0382  1.0001  -3.9509   0.0000   0.0000   0.0000   0.2774
  12.250   1.4126   0.03659   0.02971  -0.0641  0.0325  1.0001  -4.0686   0.0000   0.0000   0.0000   0.2758
  12.500   1.4196   0.03822   0.03134  -0.0629  0.0282  1.0001  -4.1868   0.0000   0.0000   0.0000   0.2743
  12.750   1.4269   0.03987   0.03301  -0.0618  0.0251  1.0001  -4.3067   0.0000   0.0000   0.0000   0.2728
  13.000   1.4341   0.04156   0.03473  -0.0607  0.0229  1.0001  -4.4270   0.0000   0.0000   0.0000   0.2713
  13.250   1.4418   0.04323   0.03644  -0.0597  0.0211  1.0001  -4.5502   0.0000   0.0000   0.0000   0.2699
  13.500   1.4488   0.04500   0.03824  -0.0588  0.0197  1.0001  -4.6715   0.0000   0.0000   0.0000   0.2686
  13.750   1.4565   0.04675   0.04004  -0.0579  0.0184  1.0001  -4.7960   0.0000   0.0000   0.0000   0.2673
  14.000   1.4630   0.04862   0.04195  -0.0571  0.0174  1.0001  -4.9172   0.0000   0.0000   0.0000   0.2660
  14.250   1.4694   0.05053   0.04392  -0.0563  0.0167  1.0001  -5.0378   0.0000   0.0000   0.0000   0.2647
  14.500   1.4761   0.05245   0.04590  -0.0555  0.0160  1.0001  -5.1609   0.0000   0.0000   0.0000   0.2635
  14.750   1.4820   0.05447   0.04797  -0.0548  0.0153  1.0001  -5.2914   0.0000   0.0000   0.0000   0.2624
  15.000   1.4871   0.05659   0.05015  -0.0541  0.0147  1.0001  -5.4196   0.0000   0.0000   0.0000   0.2612
  15.250   1.4910   0.05888   0.05249  -0.0535  0.0143  1.0001  -5.5425   0.0000   0.0000   0.0000   0.2601
  15.500   1.4950   0.06120   0.05487  -0.0529  0.0139  1.0001  -5.6658   0.0000   0.0000   0.0000   0.2591
  15.750   1.4994   0.06351   0.05726  -0.0524  0.0137  1.0001  -5.7912   0.0000   0.0000   0.0000   0.2581
  16.000   1.5030   0.06592   0.05975  -0.0519  0.0134  1.0001  -5.9139   0.0000   0.0000   0.0000   0.2571
  16.250   1.5058   0.06845   0.06235  -0.0515  0.0131  1.0001  -6.0384   0.0000   0.0000   0.0000   0.2562
  16.500   1.5080   0.07111   0.06508  -0.0512  0.0129  1.0001  -6.1638   0.0000   0.0000   0.0000   0.2554
  16.750   1.5094   0.07388   0.06792  -0.0509  0.0127  1.0001  -6.2861   0.0000   0.0000   0.0000   0.2546
  17.000   1.5102   0.07677   0.07090  -0.0507  0.0125  1.0001  -6.4046   0.0000   0.0000   0.0000   0.2538
  17.250   1.5100   0.07980   0.07401  -0.0506  0.0123  1.0001  -6.5182   0.0000   0.0000   0.0000   0.2532
  17.500   1.5090   0.08299   0.07727  -0.0505  0.0121  1.0001  -6.6267   0.0000   0.0000   0.0000   0.2526
  17.750   1.5068   0.08637   0.08072  -0.0506  0.0119  1.0001  -6.7283   0.0000   0.0000   0.0000   0.2521
  18.000   1.5032   0.08999   0.08443  -0.0508  0.0117  1.0001  -6.8207   0.0000   0.0000   0.0000   0.2516
  18.250   1.4995   0.09366   0.08818  -0.0511  0.0115  1.0001  -6.9355   0.0000   0.0000   0.0000   0.2513
  18.500   1.4979   0.09708   0.09170  -0.0514  0.0114  1.0001  -7.0655   0.0000   0.0000   0.0000   0.2510
  18.750   1.4956   0.10064   0.09535  -0.0519  0.0112  1.0001  -7.1900   0.0000   0.0000   0.0000   0.2507
  19.000   1.4927   0.10433   0.09914  -0.0525  0.0111  1.0001  -7.3090   0.0000   0.0000   0.0000   0.2506
  19.250   1.4892   0.10811   0.10301  -0.0532  0.0110  1.0001  -7.4227   0.0000   0.0000   0.0000   0.2505
  19.500   1.4854   0.11198   0.10698  -0.0540  0.0109  1.0001  -7.5324   0.0000   0.0000   0.0000   0.2505
  19.750   1.4814   0.11594   0.11103  -0.0550  0.0108  1.0001  -7.6388   0.0000   0.0000   0.0000   0.2506
  20.000   1.4772   0.11995   0.11513  -0.0561  0.0107  1.0001  -7.7425   0.0000   0.0000   0.0000   0.2508


