xflr5 v6.61

 Calculated polar for: QX0026 v32

 1 1 Reynolds number fixed          Mach number fixed         

 xtrf =   1.000 (top)        1.000 (bottom)
 Mach =   0.000     Re =     0.740 e 6     Ncrit =   5.000

  alpha     CL        CD       CDp       Cm    Top Xtr Bot Xtr   Cpmin    Chinge    XCp    
 ------- -------- --------- --------- -------- ------- ------- -------- --------- ---------
 -10.000  -0.5832   0.01724   0.01119  -0.1066  0.7213  0.0092  -8.1394   0.0000   0.0000   0.0000   0.0507
  -9.750  -0.5586   0.01667   0.01056  -0.1065  0.7193  0.0095  -7.8218   0.0000   0.0000   0.0000   0.0428
  -9.500  -0.5334   0.01617   0.01000  -0.1064  0.7170  0.0099  -7.5038   0.0000   0.0000   0.0000   0.0339
  -9.250  -0.5079   0.01571   0.00947  -0.1063  0.7147  0.0103  -7.1906   0.0000   0.0000   0.0000   0.0240
  -9.000  -0.4822   0.01526   0.00894  -0.1062  0.7126  0.0107  -6.8832   0.0000   0.0000   0.0000   0.0130
  -8.750  -0.4564   0.01485   0.00844  -0.1061  0.7109  0.0112  -6.5981   0.0000   0.0000   0.0000   0.0005
  -8.500  -0.4303   0.01443   0.00794  -0.1061  0.7091  0.0116  -6.3241   0.0000   0.0000   0.0000  -0.0136
  -8.250  -0.4042   0.01400   0.00748  -0.1060  0.7072  0.0122  -6.0482   0.0000   0.0000   0.0000  -0.0297
  -8.000  -0.3775   0.01365   0.00709  -0.1060  0.7051  0.0128  -5.7721   0.0000   0.0000   0.0000  -0.0485
  -7.750  -0.3508   0.01332   0.00671  -0.1060  0.7031  0.0135  -5.5022   0.0000   0.0000   0.0000  -0.0704
  -7.500  -0.3238   0.01303   0.00634  -0.1060  0.7013  0.0142  -5.2369   0.0000   0.0000   0.0000  -0.0960
  -7.250  -0.2971   0.01270   0.00598  -0.1060  0.6996  0.0151  -4.9748   0.0000   0.0000   0.0000  -0.1261
  -7.000  -0.2698   0.01243   0.00568  -0.1060  0.6978  0.0161  -4.7122   0.0000   0.0000   0.0000  -0.1633
  -6.750  -0.2424   0.01218   0.00539  -0.1061  0.6959  0.0172  -4.4569   0.0000   0.0000   0.0000  -0.2093
  -6.500  -0.2151   0.01189   0.00508  -0.1061  0.6941  0.0183  -4.2080   0.0000   0.0000   0.0000  -0.2664
  -6.250  -0.1876   0.01165   0.00481  -0.1062  0.6923  0.0195  -3.9620   0.0000   0.0000   0.0000  -0.3409
  -6.000  -0.1600   0.01145   0.00455  -0.1062  0.6905  0.0208  -3.7217   0.0000   0.0000   0.0000  -0.4418
  -5.750  -0.1325   0.01121   0.00430  -0.1063  0.6888  0.0224  -3.4863   0.0000   0.0000   0.0000  -0.5834
  -5.500  -0.1047   0.01101   0.00407  -0.1064  0.6865  0.0242  -3.2550   0.0000   0.0000   0.0000  -0.8042
  -5.250  -0.0769   0.01079   0.00385  -0.1064  0.6843  0.0262  -3.0301   0.0000   0.0000   0.0000  -1.1822
  -5.000  -0.0490   0.01061   0.00364  -0.1065  0.6822  0.0285  -2.8099   0.0000   0.0000   0.0000  -1.9952
  -4.750  -0.0212   0.01041   0.00344  -0.1066  0.6804  0.0311  -2.5960   0.0000   0.0000   0.0000  -4.9278
  -4.500   0.0067   0.01025   0.00324  -0.1067  0.6787  0.0340  -2.3875   0.0000   0.0000   0.0000  16.6198
  -4.250   0.0348   0.01009   0.00308  -0.1068  0.6769  0.0380  -2.1838   0.0000   0.0000   0.0000   3.4039
  -4.000   0.0629   0.00992   0.00293  -0.1069  0.6747  0.0429  -1.9944   0.0000   0.0000   0.0000   1.9934
  -3.750   0.0909   0.00975   0.00278  -0.1071  0.6727  0.0490  -1.8190   0.0000   0.0000   0.0000   1.4545
  -3.500   0.1190   0.00959   0.00264  -0.1072  0.6708  0.0579  -1.6484   0.0000   0.0000   0.0000   1.1700
  -3.250   0.1469   0.00944   0.00251  -0.1073  0.6689  0.0694  -1.4859   0.0000   0.0000   0.0000   0.9944
  -3.000   0.1748   0.00928   0.00239  -0.1074  0.6669  0.0849  -1.3483   0.0000   0.0000   0.0000   0.8749
  -2.750   0.2028   0.00910   0.00228  -0.1076  0.6643  0.1047  -1.2185   0.0000   0.0000   0.0000   0.7885
  -2.500   0.2308   0.00893   0.00219  -0.1077  0.6618  0.1278  -1.0921   0.0000   0.0000   0.0000   0.7229
  -2.250   0.2587   0.00878   0.00211  -0.1078  0.6596  0.1513  -0.9762   0.0000   0.0000   0.0000   0.6715
  -2.000   0.2866   0.00864   0.00203  -0.1079  0.6576  0.1775  -0.8666   0.0000   0.0000   0.0000   0.6302
  -1.750   0.3146   0.00849   0.00197  -0.1081  0.6553  0.2084  -0.7638   0.0000   0.0000   0.0000   0.5962
  -1.250   0.3702   0.00816   0.00188  -0.1083  0.6501  0.2866  -0.7961   0.0000   0.0000   0.0000   0.5437
  -1.000   0.3979   0.00803   0.00185  -0.1084  0.6476  0.3290  -0.8124   0.0000   0.0000   0.0000   0.5229
  -0.750   0.4258   0.00793   0.00183  -0.1085  0.6452  0.3632  -0.8287   0.0000   0.0000   0.0000   0.5048
  -0.500   0.4538   0.00782   0.00183  -0.1087  0.6425  0.3981  -0.8451   0.0000   0.0000   0.0000   0.4888
   0.000   0.5096   0.00765   0.00182  -0.1089  0.6370  0.4654  -0.8800   0.0000   0.0000   0.0000   0.4621
   0.250   0.5375   0.00758   0.00183  -0.1090  0.6343  0.4960  -0.8983   0.0000   0.0000   0.0000   0.4508
   0.500   0.5654   0.00750   0.00185  -0.1091  0.6310  0.5328  -0.9165   0.0000   0.0000   0.0000   0.4406
   0.750   0.5928   0.00741   0.00188  -0.1091  0.6279  0.5754  -0.9346   0.0000   0.0000   0.0000   0.4314
   1.000   0.6201   0.00735   0.00190  -0.1091  0.6249  0.6147  -0.9528   0.0000   0.0000   0.0000   0.4229
   1.250   0.6474   0.00726   0.00195  -0.1090  0.6214  0.6587  -0.9728   0.0000   0.0000   0.0000   0.4151
   1.500   0.6741   0.00717   0.00201  -0.1088  0.6177  0.7075  -0.9927   0.0000   0.0000   0.0000   0.4078
   1.750   0.7003   0.00709   0.00205  -0.1085  0.6142  0.7565  -1.0123   0.0000   0.0000   0.0000   0.4010
   2.000   0.7267   0.00701   0.00211  -0.1082  0.6102  0.8021  -1.0319   0.0000   0.0000   0.0000   0.3946
   2.250   0.7525   0.00692   0.00217  -0.1077  0.6059  0.8521  -1.0529   0.0000   0.0000   0.0000   0.3886
   2.500   0.7847   0.00682   0.00224  -0.1086  0.6018  0.9252  -1.0785   0.0000   0.0000   0.0000   0.3836
   2.750   0.8422   0.00685   0.00230  -0.1153  0.5962  0.9844  -1.1187   0.0000   0.0000   0.0000   0.3818
   3.000   0.8764   0.00695   0.00237  -0.1169  0.5908  1.0001  -1.1473   0.0000   0.0000   0.0000   0.3780
   3.250   0.9022   0.00703   0.00243  -0.1166  0.5840  1.0001  -1.1719   0.0000   0.0000   0.0000   0.3735
   3.500   0.9279   0.00711   0.00250  -0.1162  0.5762  1.0001  -1.2013   0.0000   0.0000   0.0000   0.3693
   3.750   0.9533   0.00722   0.00257  -0.1158  0.5679  1.0001  -1.2355   0.0000   0.0000   0.0000   0.3652
   4.000   0.9785   0.00734   0.00265  -0.1154  0.5593  1.0001  -1.2706   0.0000   0.0000   0.0000   0.3613
   4.250   1.0036   0.00747   0.00276  -0.1150  0.5498  1.0001  -1.3059   0.0000   0.0000   0.0000   0.3576
   4.500   1.0287   0.00761   0.00287  -0.1145  0.5398  1.0001  -1.3414   0.0000   0.0000   0.0000   0.3541
   4.750   1.0537   0.00775   0.00299  -0.1141  0.5299  1.0001  -1.3770   0.0000   0.0000   0.0000   0.3508
   5.000   1.0786   0.00791   0.00313  -0.1137  0.5206  1.0001  -1.4127   0.0000   0.0000   0.0000   0.3475
   5.250   1.1030   0.00809   0.00328  -0.1132  0.5104  1.0001  -1.4507   0.0000   0.0000   0.0000   0.3444
   5.500   1.1270   0.00829   0.00345  -0.1126  0.4994  1.0001  -1.4897   0.0000   0.0000   0.0000   0.3414
   5.750   1.1508   0.00850   0.00364  -0.1120  0.4879  1.0001  -1.5286   0.0000   0.0000   0.0000   0.3385
   6.000   1.1733   0.00877   0.00386  -0.1111  0.4738  1.0001  -1.5667   0.0000   0.0000   0.0000   0.3356
   6.250   1.1946   0.00909   0.00411  -0.1101  0.4559  1.0001  -1.6050   0.0000   0.0000   0.0000   0.3327
   6.500   1.2148   0.00945   0.00440  -0.1089  0.4366  1.0001  -1.6874   0.0000   0.0000   0.0000   0.3298
   6.750   1.2350   0.00982   0.00471  -0.1077  0.4201  1.0001  -1.7997   0.0000   0.0000   0.0000   0.3270
   7.000   1.2532   0.01026   0.00506  -0.1062  0.3984  1.0001  -1.9109   0.0000   0.0000   0.0000   0.3242
   7.250   1.2667   0.01090   0.00554  -0.1039  0.3679  1.0001  -2.0191   0.0000   0.0000   0.0000   0.3212
   7.500   1.2774   0.01162   0.00610  -0.1012  0.3356  1.0001  -2.1214   0.0000   0.0000   0.0000   0.3180
   7.750   1.2835   0.01239   0.00671  -0.0976  0.3046  1.0001  -2.2131   0.0000   0.0000   0.0000   0.3144
   8.000   1.2902   0.01321   0.00740  -0.0943  0.2769  1.0001  -2.3074   0.0000   0.0000   0.0000   0.3112
   8.250   1.2973   0.01412   0.00818  -0.0914  0.2525  1.0001  -2.4036   0.0000   0.0000   0.0000   0.3081
   8.500   1.3045   0.01513   0.00907  -0.0888  0.2285  1.0001  -2.5007   0.0000   0.0000   0.0000   0.3053
   8.750   1.3116   0.01627   0.01011  -0.0865  0.2062  1.0001  -2.5981   0.0000   0.0000   0.0000   0.3027
   9.000   1.3203   0.01743   0.01118  -0.0845  0.1873  1.0001  -2.7010   0.0000   0.0000   0.0000   0.3004
   9.250   1.3310   0.01853   0.01223  -0.0830  0.1728  1.0001  -2.8108   0.0000   0.0000   0.0000   0.2983
   9.500   1.3406   0.01975   0.01338  -0.0814  0.1568  1.0001  -2.9183   0.0000   0.0000   0.0000   0.2963
   9.750   1.3498   0.02102   0.01458  -0.0798  0.1407  1.0001  -3.0258   0.0000   0.0000   0.0000   0.2943
  10.000   1.3564   0.02248   0.01596  -0.0781  0.1216  1.0001  -3.1263   0.0000   0.0000   0.0000   0.2922
  10.250   1.3603   0.02415   0.01752  -0.0761  0.1002  1.0001  -3.2184   0.0000   0.0000   0.0000   0.2902
  10.500   1.3639   0.02586   0.01913  -0.0742  0.0818  1.0001  -3.3104   0.0000   0.0000   0.0000   0.2881
  10.750   1.3692   0.02745   0.02066  -0.0725  0.0691  1.0001  -3.4088   0.0000   0.0000   0.0000   0.2862
  11.000   1.3767   0.02890   0.02209  -0.0710  0.0600  1.0001  -3.5151   0.0000   0.0000   0.0000   0.2844
  11.250   1.3847   0.03033   0.02350  -0.0696  0.0532  1.0001  -3.6238   0.0000   0.0000   0.0000   0.2826
  11.500   1.3933   0.03173   0.02490  -0.0682  0.0475  1.0001  -3.7355   0.0000   0.0000   0.0000   0.2809
  11.750   1.4017   0.03315   0.02632  -0.0670  0.0416  1.0001  -3.8484   0.0000   0.0000   0.0000   0.2792
  12.000   1.4090   0.03467   0.02784  -0.0656  0.0355  1.0001  -3.9664   0.0000   0.0000   0.0000   0.2775
  12.250   1.4160   0.03626   0.02943  -0.0644  0.0303  1.0001  -4.0840   0.0000   0.0000   0.0000   0.2759
  12.500   1.4233   0.03786   0.03103  -0.0632  0.0266  1.0001  -4.2034   0.0000   0.0000   0.0000   0.2744
  12.750   1.4309   0.03948   0.03267  -0.0621  0.0239  1.0001  -4.3248   0.0000   0.0000   0.0000   0.2729
  13.000   1.4389   0.04110   0.03432  -0.0611  0.0219  1.0001  -4.4490   0.0000   0.0000   0.0000   0.2714
  13.250   1.4461   0.04281   0.03606  -0.0600  0.0202  1.0001  -4.5705   0.0000   0.0000   0.0000   0.2700
  13.500   1.4542   0.04447   0.03777  -0.0591  0.0189  1.0001  -4.6966   0.0000   0.0000   0.0000   0.2687
  13.750   1.4615   0.04624   0.03958  -0.0583  0.0177  1.0001  -4.8205   0.0000   0.0000   0.0000   0.2673
  14.000   1.4681   0.04810   0.04148  -0.0574  0.0168  1.0001  -4.9422   0.0000   0.0000   0.0000   0.2660
  14.250   1.4754   0.04991   0.04335  -0.0566  0.0161  1.0001  -5.0675   0.0000   0.0000   0.0000   0.2648
  14.500   1.4820   0.05183   0.04533  -0.0558  0.0154  1.0001  -5.1912   0.0000   0.0000   0.0000   0.2636
  14.750   1.4877   0.05385   0.04740  -0.0551  0.0148  1.0001  -5.3223   0.0000   0.0000   0.0000   0.2624
  15.000   1.4924   0.05603   0.04962  -0.0544  0.0142  1.0001  -5.4486   0.0000   0.0000   0.0000   0.2613
  15.250   1.4973   0.05819   0.05185  -0.0537  0.0139  1.0001  -5.5763   0.0000   0.0000   0.0000   0.2602
  15.500   1.5022   0.06039   0.05411  -0.0532  0.0136  1.0001  -5.7049   0.0000   0.0000   0.0000   0.2591
  15.750   1.5066   0.06268   0.05648  -0.0526  0.0133  1.0001  -5.8316   0.0000   0.0000   0.0000   0.2581
  16.000   1.5102   0.06508   0.05895  -0.0522  0.0130  1.0001  -5.9555   0.0000   0.0000   0.0000   0.2571
  16.250   1.5131   0.06760   0.06154  -0.0517  0.0128  1.0001  -6.0821   0.0000   0.0000   0.0000   0.2562
  16.500   1.5152   0.07024   0.06425  -0.0514  0.0126  1.0001  -6.2085   0.0000   0.0000   0.0000   0.2553
  16.750   1.5166   0.07300   0.06708  -0.0511  0.0123  1.0001  -6.3314   0.0000   0.0000   0.0000   0.2545
  17.000   1.5172   0.07590   0.07005  -0.0508  0.0121  1.0001  -6.4499   0.0000   0.0000   0.0000   0.2538
  17.250   1.5167   0.07896   0.07319  -0.0507  0.0119  1.0001  -6.5618   0.0000   0.0000   0.0000   0.2531
  17.500   1.5147   0.08225   0.07655  -0.0506  0.0117  1.0001  -6.6650   0.0000   0.0000   0.0000   0.2525
  17.750   1.5116   0.08575   0.08014  -0.0506  0.0115  1.0001  -6.7598   0.0000   0.0000   0.0000   0.2520
  18.000   1.5113   0.08892   0.08340  -0.0508  0.0114  1.0001  -6.8799   0.0000   0.0000   0.0000   0.2515
  18.250   1.5102   0.09222   0.08678  -0.0510  0.0113  1.0001  -7.0152   0.0000   0.0000   0.0000   0.2510
  18.500   1.5083   0.09565   0.09030  -0.0513  0.0111  1.0001  -7.1448   0.0000   0.0000   0.0000   0.2507
  18.750   1.5058   0.09921   0.09396  -0.0517  0.0110  1.0001  -7.2691   0.0000   0.0000   0.0000   0.2504
  19.000   1.5027   0.10291   0.09775  -0.0523  0.0109  1.0001  -7.3882   0.0000   0.0000   0.0000   0.2502
  19.250   1.4991   0.10669   0.10162  -0.0530  0.0108  1.0001  -7.5030   0.0000   0.0000   0.0000   0.2501
  19.500   1.4952   0.11055   0.10558  -0.0538  0.0106  1.0001  -7.6137   0.0000   0.0000   0.0000   0.2501
  19.750   1.4911   0.11448   0.10960  -0.0547  0.0105  1.0001  -7.7217   0.0000   0.0000   0.0000   0.2502
  20.000   1.4870   0.11846   0.11367  -0.0558  0.0104  1.0001  -7.8284   0.0000   0.0000   0.0000   0.2503


