xflr5 v6.61

 Calculated polar for: QX0026 v32

 1 1 Reynolds number fixed          Mach number fixed         

 xtrf =   1.000 (top)        1.000 (bottom)
 Mach =   0.000     Re =     0.940 e 6     Ncrit =   5.000

  alpha     CL        CD       CDp       Cm    Top Xtr Bot Xtr   Cpmin    Chinge    XCp    
 ------- -------- --------- --------- -------- ------- ------- -------- --------- ---------
 -10.000  -0.5898   0.01582   0.00991  -0.1061  0.7129  0.0085  -8.2622   0.0000   0.0000   0.0000   0.0538
  -9.750  -0.5644   0.01537   0.00937  -0.1059  0.7109  0.0087  -7.9363   0.0000   0.0000   0.0000   0.0459
  -9.500  -0.5390   0.01489   0.00882  -0.1058  0.7088  0.0090  -7.6172   0.0000   0.0000   0.0000   0.0372
  -9.250  -0.5134   0.01441   0.00829  -0.1058  0.7067  0.0094  -7.2999   0.0000   0.0000   0.0000   0.0275
  -9.000  -0.4872   0.01401   0.00785  -0.1057  0.7047  0.0099  -6.9805   0.0000   0.0000   0.0000   0.0165
  -8.750  -0.4608   0.01365   0.00744  -0.1057  0.7029  0.0103  -6.6825   0.0000   0.0000   0.0000   0.0039
  -8.500  -0.4343   0.01332   0.00705  -0.1056  0.7011  0.0108  -6.3960   0.0000   0.0000   0.0000  -0.0102
  -8.250  -0.4075   0.01301   0.00667  -0.1056  0.6994  0.0112  -6.1139   0.0000   0.0000   0.0000  -0.0264
  -8.000  -0.3807   0.01265   0.00628  -0.1056  0.6975  0.0118  -5.8373   0.0000   0.0000   0.0000  -0.0449
  -7.750  -0.3538   0.01233   0.00594  -0.1056  0.6955  0.0125  -5.5602   0.0000   0.0000   0.0000  -0.0666
  -7.500  -0.3266   0.01206   0.00563  -0.1057  0.6936  0.0132  -5.2869   0.0000   0.0000   0.0000  -0.0921
  -7.250  -0.2992   0.01181   0.00533  -0.1057  0.6918  0.0139  -5.0193   0.0000   0.0000   0.0000  -0.1225
  -7.000  -0.2719   0.01155   0.00502  -0.1057  0.6902  0.0147  -4.7575   0.0000   0.0000   0.0000  -0.1589
  -6.750  -0.2446   0.01130   0.00476  -0.1058  0.6887  0.0157  -4.4973   0.0000   0.0000   0.0000  -0.2037
  -6.500  -0.2168   0.01108   0.00452  -0.1059  0.6869  0.0169  -4.2413   0.0000   0.0000   0.0000  -0.2610
  -6.250  -0.1891   0.01086   0.00427  -0.1059  0.6850  0.0180  -3.9924   0.0000   0.0000   0.0000  -0.3350
  -6.000  -0.1614   0.01064   0.00404  -0.1060  0.6828  0.0193  -3.7479   0.0000   0.0000   0.0000  -0.4345
  -5.750  -0.1335   0.01046   0.00382  -0.1061  0.6807  0.0206  -3.5092   0.0000   0.0000   0.0000  -0.5761
  -5.500  -0.1058   0.01027   0.00361  -0.1062  0.6788  0.0223  -3.2764   0.0000   0.0000   0.0000  -0.7907
  -5.250  -0.0777   0.01010   0.00342  -0.1063  0.6770  0.0242  -3.0476   0.0000   0.0000   0.0000  -1.1649
  -5.000  -0.0497   0.00991   0.00323  -0.1064  0.6751  0.0263  -2.8252   0.0000   0.0000   0.0000  -1.9619
  -4.750  -0.0215   0.00975   0.00307  -0.1065  0.6731  0.0286  -2.6079   0.0000   0.0000   0.0000  -4.8593
  -4.500   0.0065   0.00958   0.00289  -0.1066  0.6711  0.0314  -2.3974   0.0000   0.0000   0.0000  17.0172
  -4.250   0.0346   0.00944   0.00274  -0.1068  0.6692  0.0346  -2.1925   0.0000   0.0000   0.0000   3.4136
  -4.000   0.0627   0.00930   0.00259  -0.1069  0.6676  0.0390  -1.9992   0.0000   0.0000   0.0000   1.9960
  -3.750   0.0910   0.00915   0.00246  -0.1070  0.6657  0.0445  -1.8222   0.0000   0.0000   0.0000   1.4524
  -3.500   0.1193   0.00900   0.00234  -0.1072  0.6634  0.0513  -1.6502   0.0000   0.0000   0.0000   1.1670
  -3.250   0.1475   0.00885   0.00222  -0.1073  0.6611  0.0611  -1.4865   0.0000   0.0000   0.0000   0.9914
  -3.000   0.1756   0.00870   0.00210  -0.1075  0.6588  0.0737  -1.3490   0.0000   0.0000   0.0000   0.8725
  -2.750   0.2035   0.00856   0.00200  -0.1076  0.6567  0.0906  -1.2188   0.0000   0.0000   0.0000   0.7865
  -2.500   0.2317   0.00839   0.00192  -0.1077  0.6545  0.1115  -1.0918   0.0000   0.0000   0.0000   0.7212
  -2.250   0.2598   0.00824   0.00184  -0.1079  0.6520  0.1336  -0.9752   0.0000   0.0000   0.0000   0.6699
  -2.000   0.2880   0.00812   0.00177  -0.1080  0.6497  0.1564  -0.8649   0.0000   0.0000   0.0000   0.6287
  -1.750   0.3160   0.00798   0.00170  -0.1082  0.6474  0.1823  -0.7656   0.0000   0.0000   0.0000   0.5949
  -1.500   0.3439   0.00784   0.00165  -0.1083  0.6451  0.2155  -0.7814   0.0000   0.0000   0.0000   0.5667
  -1.250   0.3718   0.00768   0.00162  -0.1085  0.6424  0.2536  -0.7977   0.0000   0.0000   0.0000   0.5427
  -1.000   0.3998   0.00754   0.00159  -0.1086  0.6396  0.2914  -0.8141   0.0000   0.0000   0.0000   0.5220
  -0.750   0.4277   0.00743   0.00156  -0.1087  0.6371  0.3297  -0.8305   0.0000   0.0000   0.0000   0.5040
  -0.500   0.4556   0.00734   0.00155  -0.1088  0.6347  0.3631  -0.8469   0.0000   0.0000   0.0000   0.4882
  -0.250   0.4839   0.00725   0.00156  -0.1090  0.6318  0.3948  -0.8636   0.0000   0.0000   0.0000   0.4742
   0.000   0.5120   0.00717   0.00156  -0.1092  0.6287  0.4261  -0.8820   0.0000   0.0000   0.0000   0.4617
   0.250   0.5399   0.00711   0.00156  -0.1093  0.6257  0.4579  -0.9002   0.0000   0.0000   0.0000   0.4505
   0.500   0.5681   0.00705   0.00158  -0.1094  0.6227  0.4854  -0.9187   0.0000   0.0000   0.0000   0.4403
   0.750   0.5960   0.00697   0.00160  -0.1095  0.6192  0.5225  -0.9370   0.0000   0.0000   0.0000   0.4311
   1.000   0.6236   0.00690   0.00163  -0.1096  0.6158  0.5622  -0.9553   0.0000   0.0000   0.0000   0.4227
   1.500   0.6787   0.00676   0.00170  -0.1096  0.6083  0.6425  -0.9958   0.0000   0.0000   0.0000   0.4079
   1.750   0.7055   0.00669   0.00175  -0.1095  0.6043  0.6905  -1.0157   0.0000   0.0000   0.0000   0.4013
   2.000   0.7323   0.00662   0.00181  -0.1093  0.6004  0.7373  -1.0357   0.0000   0.0000   0.0000   0.3951
   2.250   0.7588   0.00656   0.00187  -0.1091  0.5958  0.7805  -1.0571   0.0000   0.0000   0.0000   0.3892
   2.500   0.7846   0.00651   0.00193  -0.1087  0.5911  0.8261  -1.0789   0.0000   0.0000   0.0000   0.3837
   2.750   0.8103   0.00641   0.00200  -0.1082  0.5853  0.8819  -1.1006   0.0000   0.0000   0.0000   0.3784
   3.000   0.8578   0.00638   0.00210  -0.1126  0.5782  0.9583  -1.1365   0.0000   0.0000   0.0000   0.3759
   3.500   0.9308   0.00661   0.00225  -0.1168  0.5600  1.0001  -1.2036   0.0000   0.0000   0.0000   0.3695
   3.750   0.9561   0.00672   0.00233  -0.1164  0.5507  1.0001  -1.2381   0.0000   0.0000   0.0000   0.3654
   4.000   0.9812   0.00685   0.00243  -0.1160  0.5404  1.0001  -1.2732   0.0000   0.0000   0.0000   0.3616
   4.250   1.0061   0.00700   0.00254  -0.1155  0.5297  1.0001  -1.3084   0.0000   0.0000   0.0000   0.3579
   4.500   1.0311   0.00715   0.00265  -0.1151  0.5197  1.0001  -1.3438   0.0000   0.0000   0.0000   0.3544
   4.750   1.0559   0.00730   0.00278  -0.1146  0.5103  1.0001  -1.3793   0.0000   0.0000   0.0000   0.3510
   5.000   1.0805   0.00748   0.00293  -0.1141  0.4999  1.0001  -1.4147   0.0000   0.0000   0.0000   0.3478
   5.250   1.1047   0.00767   0.00308  -0.1136  0.4881  1.0001  -1.4529   0.0000   0.0000   0.0000   0.3446
   5.500   1.1286   0.00788   0.00325  -0.1130  0.4763  1.0001  -1.4917   0.0000   0.0000   0.0000   0.3416
   5.750   1.1512   0.00816   0.00347  -0.1121  0.4620  1.0001  -1.5296   0.0000   0.0000   0.0000   0.3386
   6.000   1.1730   0.00847   0.00371  -0.1112  0.4426  1.0001  -1.5672   0.0000   0.0000   0.0000   0.3356
   6.250   1.1940   0.00882   0.00398  -0.1101  0.4235  1.0001  -1.6052   0.0000   0.0000   0.0000   0.3327
   6.500   1.2151   0.00916   0.00425  -0.1091  0.4073  1.0001  -1.6899   0.0000   0.0000   0.0000   0.3299
   6.750   1.2337   0.00961   0.00460  -0.1076  0.3834  1.0001  -1.7987   0.0000   0.0000   0.0000   0.3271
   7.000   1.2480   0.01024   0.00506  -0.1054  0.3497  1.0001  -1.9020   0.0000   0.0000   0.0000   0.3240
   7.250   1.2603   0.01093   0.00557  -0.1030  0.3162  1.0001  -2.0069   0.0000   0.0000   0.0000   0.3208
   7.500   1.2709   0.01163   0.00611  -0.1002  0.2865  1.0001  -2.1089   0.0000   0.0000   0.0000   0.3176
   7.750   1.2789   0.01233   0.00668  -0.0970  0.2604  1.0001  -2.2055   0.0000   0.0000   0.0000   0.3142
   8.000   1.2879   0.01307   0.00731  -0.0941  0.2371  1.0001  -2.3059   0.0000   0.0000   0.0000   0.3111
   8.250   1.2967   0.01391   0.00804  -0.0915  0.2157  1.0001  -2.4066   0.0000   0.0000   0.0000   0.3082
   8.500   1.3049   0.01488   0.00889  -0.0890  0.1932  1.0001  -2.5065   0.0000   0.0000   0.0000   0.3054
   8.750   1.3148   0.01585   0.00979  -0.0869  0.1755  1.0001  -2.6122   0.0000   0.0000   0.0000   0.3030
   9.000   1.3261   0.01683   0.01071  -0.0853  0.1607  1.0001  -2.7234   0.0000   0.0000   0.0000   0.3007
   9.250   1.3367   0.01793   0.01175  -0.0837  0.1452  1.0001  -2.8333   0.0000   0.0000   0.0000   0.2986
   9.500   1.3445   0.01925   0.01297  -0.0819  0.1261  1.0001  -2.9361   0.0000   0.0000   0.0000   0.2965
   9.750   1.3504   0.02075   0.01437  -0.0800  0.1047  1.0001  -3.0332   0.0000   0.0000   0.0000   0.2944
  10.000   1.3551   0.02235   0.01587  -0.0780  0.0847  1.0001  -3.1275   0.0000   0.0000   0.0000   0.2923
  10.250   1.3615   0.02384   0.01729  -0.0763  0.0705  1.0001  -3.2283   0.0000   0.0000   0.0000   0.2903
  10.500   1.3703   0.02518   0.01859  -0.0748  0.0610  1.0001  -3.3376   0.0000   0.0000   0.0000   0.2884
  10.750   1.3799   0.02646   0.01985  -0.0735  0.0540  1.0001  -3.4506   0.0000   0.0000   0.0000   0.2866
  11.000   1.3898   0.02773   0.02112  -0.0722  0.0483  1.0001  -3.5659   0.0000   0.0000   0.0000   0.2848
  11.250   1.3996   0.02902   0.02240  -0.0709  0.0425  1.0001  -3.6818   0.0000   0.0000   0.0000   0.2831
  11.500   1.4084   0.03038   0.02375  -0.0696  0.0362  1.0001  -3.7955   0.0000   0.0000   0.0000   0.2813
  11.750   1.4162   0.03184   0.02519  -0.0682  0.0305  1.0001  -3.9102   0.0000   0.0000   0.0000   0.2796
  12.000   1.4242   0.03328   0.02664  -0.0669  0.0264  1.0001  -4.0320   0.0000   0.0000   0.0000   0.2780
  12.250   1.4325   0.03474   0.02812  -0.0657  0.0235  1.0001  -4.1558   0.0000   0.0000   0.0000   0.2763
  12.500   1.4417   0.03617   0.02956  -0.0646  0.0214  1.0001  -4.2841   0.0000   0.0000   0.0000   0.2748
  12.750   1.4502   0.03767   0.03109  -0.0635  0.0197  1.0001  -4.4107   0.0000   0.0000   0.0000   0.2733
  13.000   1.4592   0.03917   0.03262  -0.0625  0.0181  1.0001  -4.5406   0.0000   0.0000   0.0000   0.2718
  13.250   1.4672   0.04078   0.03426  -0.0615  0.0169  1.0001  -4.6679   0.0000   0.0000   0.0000   0.2704
  13.500   1.4762   0.04232   0.03585  -0.0605  0.0159  1.0001  -4.7998   0.0000   0.0000   0.0000   0.2690
  13.750   1.4842   0.04399   0.03755  -0.0596  0.0151  1.0001  -4.9291   0.0000   0.0000   0.0000   0.2677
  14.000   1.4914   0.04575   0.03935  -0.0587  0.0143  1.0001  -5.0566   0.0000   0.0000   0.0000   0.2664
  14.250   1.4990   0.04750   0.04115  -0.0579  0.0138  1.0001  -5.1862   0.0000   0.0000   0.0000   0.2651
  14.500   1.5063   0.04931   0.04301  -0.0571  0.0134  1.0001  -5.3180   0.0000   0.0000   0.0000   0.2639
  14.750   1.5132   0.05118   0.04493  -0.0564  0.0130  1.0001  -5.4562   0.0000   0.0000   0.0000   0.2627
  15.000   1.5194   0.05314   0.04694  -0.0557  0.0126  1.0001  -5.5925   0.0000   0.0000   0.0000   0.2615
  15.250   1.5248   0.05522   0.04907  -0.0550  0.0123  1.0001  -5.7260   0.0000   0.0000   0.0000   0.2604
  15.500   1.5295   0.05738   0.05130  -0.0543  0.0121  1.0001  -5.8568   0.0000   0.0000   0.0000   0.2593
  15.750   1.5333   0.05967   0.05364  -0.0536  0.0118  1.0001  -5.9834   0.0000   0.0000   0.0000   0.2582
  16.000   1.5361   0.06212   0.05615  -0.0530  0.0115  1.0001  -6.1057   0.0000   0.0000   0.0000   0.2572
  16.250   1.5401   0.06447   0.05857  -0.0526  0.0114  1.0001  -6.2445   0.0000   0.0000   0.0000   0.2562
  16.500   1.5435   0.06690   0.06107  -0.0521  0.0113  1.0001  -6.3804   0.0000   0.0000   0.0000   0.2553
  16.750   1.5464   0.06943   0.06367  -0.0518  0.0111  1.0001  -6.5138   0.0000   0.0000   0.0000   0.2544
  17.000   1.5487   0.07205   0.06637  -0.0514  0.0110  1.0001  -6.6456   0.0000   0.0000   0.0000   0.2535
  17.250   1.5505   0.07477   0.06917  -0.0512  0.0108  1.0001  -6.7749   0.0000   0.0000   0.0000   0.2527
  17.500   1.5515   0.07762   0.07208  -0.0510  0.0106  1.0001  -6.9005   0.0000   0.0000   0.0000   0.2520
  17.750   1.5517   0.08057   0.07512  -0.0509  0.0105  1.0001  -7.0305   0.0000   0.0000   0.0000   0.2513
  18.000   1.5513   0.08367   0.07829  -0.0509  0.0103  1.0001  -7.1754   0.0000   0.0000   0.0000   0.2507
  18.250   1.5501   0.08690   0.08160  -0.0510  0.0102  1.0001  -7.3154   0.0000   0.0000   0.0000   0.2501
  18.500   1.5482   0.09025   0.08503  -0.0511  0.0101  1.0001  -7.4508   0.0000   0.0000   0.0000   0.2497
  18.750   1.5455   0.09373   0.08859  -0.0514  0.0099  1.0001  -7.5801   0.0000   0.0000   0.0000   0.2493
  19.000   1.5421   0.09735   0.09229  -0.0518  0.0098  1.0001  -7.7038   0.0000   0.0000   0.0000   0.2489
  19.250   1.5381   0.10112   0.09614  -0.0523  0.0097  1.0001  -7.8214   0.0000   0.0000   0.0000   0.2487
  19.500   1.5332   0.10505   0.10015  -0.0529  0.0096  1.0001  -7.9311   0.0000   0.0000   0.0000   0.2486
  19.750   1.5269   0.10920   0.10440  -0.0537  0.0094  1.0001  -8.0284   0.0000   0.0000   0.0000   0.2486
  20.000   1.5194   0.11359   0.10888  -0.0547  0.0093  1.0001  -8.1127   0.0000   0.0000   0.0000   0.2488


