xflr5 v6.61

 Calculated polar for: QX0026 v32

 1 1 Reynolds number fixed          Mach number fixed         

 xtrf =   1.000 (top)        1.000 (bottom)
 Mach =   0.000     Re =     0.620 e 6     Ncrit =   5.000

  alpha     CL        CD       CDp       Cm    Top Xtr Bot Xtr   Cpmin    Chinge    XCp    
 ------- -------- --------- --------- -------- ------- ------- -------- --------- ---------
 -10.000  -0.5763   0.01858   0.01251  -0.1073  0.7275  0.0099  -8.0061   0.0000   0.0000   0.0000   0.0472
  -9.750  -0.5521   0.01798   0.01182  -0.1071  0.7254  0.0102  -7.6992   0.0000   0.0000   0.0000   0.0393
  -9.500  -0.5277   0.01740   0.01114  -0.1070  0.7234  0.0106  -7.3971   0.0000   0.0000   0.0000   0.0306
  -9.250  -0.5029   0.01685   0.01048  -0.1068  0.7214  0.0110  -7.0993   0.0000   0.0000   0.0000   0.0209
  -9.000  -0.4777   0.01634   0.00987  -0.1067  0.7193  0.0113  -6.8027   0.0000   0.0000   0.0000   0.0098
  -8.750  -0.4527   0.01577   0.00924  -0.1066  0.7170  0.0118  -6.5302   0.0000   0.0000   0.0000  -0.0024
  -8.500  -0.4270   0.01532   0.00874  -0.1065  0.7149  0.0124  -6.2542   0.0000   0.0000   0.0000  -0.0167
  -8.250  -0.4009   0.01492   0.00827  -0.1065  0.7131  0.0130  -5.9819   0.0000   0.0000   0.0000  -0.0330
  -8.000  -0.3746   0.01454   0.00781  -0.1064  0.7114  0.0136  -5.7164   0.0000   0.0000   0.0000  -0.0518
  -7.750  -0.3481   0.01419   0.00738  -0.1063  0.7096  0.0143  -5.4537   0.0000   0.0000   0.0000  -0.0738
  -7.500  -0.3217   0.01380   0.00696  -0.1063  0.7075  0.0152  -5.1899   0.0000   0.0000   0.0000  -0.0995
  -7.250  -0.2947   0.01349   0.00662  -0.1064  0.7054  0.0162  -4.9273   0.0000   0.0000   0.0000  -0.1305
  -7.000  -0.2676   0.01320   0.00627  -0.1064  0.7034  0.0172  -4.6735   0.0000   0.0000   0.0000  -0.1679
  -6.750  -0.2408   0.01287   0.00590  -0.1063  0.7017  0.0182  -4.4249   0.0000   0.0000   0.0000  -0.2133
  -6.500  -0.2137   0.01260   0.00558  -0.1064  0.7001  0.0194  -4.1779   0.0000   0.0000   0.0000  -0.2710
  -6.250  -0.1862   0.01236   0.00529  -0.1064  0.6984  0.0207  -3.9361   0.0000   0.0000   0.0000  -0.3467
  -6.000  -0.1589   0.01207   0.00500  -0.1065  0.6964  0.0222  -3.6982   0.0000   0.0000   0.0000  -0.4480
  -5.750  -0.1313   0.01184   0.00474  -0.1065  0.6943  0.0239  -3.4646   0.0000   0.0000   0.0000  -0.5934
  -5.500  -0.1038   0.01160   0.00447  -0.1066  0.6923  0.0257  -3.2378   0.0000   0.0000   0.0000  -0.8146
  -5.250  -0.0762   0.01139   0.00422  -0.1066  0.6903  0.0279  -3.0145   0.0000   0.0000   0.0000  -1.1981
  -5.000  -0.0486   0.01118   0.00398  -0.1067  0.6884  0.0303  -2.7975   0.0000   0.0000   0.0000  -2.0171
  -4.750  -0.0207   0.01099   0.00377  -0.1068  0.6862  0.0329  -2.5850   0.0000   0.0000   0.0000  -5.0697
  -4.500   0.0071   0.01078   0.00358  -0.1068  0.6842  0.0365  -2.3778   0.0000   0.0000   0.0000  15.6937
  -4.250   0.0350   0.01060   0.00339  -0.1069  0.6822  0.0409  -2.1760   0.0000   0.0000   0.0000   3.3885
  -4.000   0.0629   0.01043   0.00321  -0.1070  0.6804  0.0461  -1.9906   0.0000   0.0000   0.0000   1.9945
  -3.750   0.0908   0.01027   0.00304  -0.1071  0.6787  0.0532  -1.8162   0.0000   0.0000   0.0000   1.4570
  -3.500   0.1187   0.01009   0.00290  -0.1072  0.6767  0.0635  -1.6466   0.0000   0.0000   0.0000   1.1724
  -3.250   0.1466   0.00991   0.00277  -0.1074  0.6747  0.0767  -1.4848   0.0000   0.0000   0.0000   0.9963
  -3.000   0.1745   0.00973   0.00265  -0.1075  0.6724  0.0942  -1.3472   0.0000   0.0000   0.0000   0.8767
  -2.750   0.2022   0.00955   0.00253  -0.1076  0.6701  0.1166  -1.2181   0.0000   0.0000   0.0000   0.7901
  -2.500   0.2300   0.00940   0.00243  -0.1077  0.6680  0.1405  -1.0922   0.0000   0.0000   0.0000   0.7244
  -2.250   0.2579   0.00923   0.00235  -0.1078  0.6657  0.1662  -0.9769   0.0000   0.0000   0.0000   0.6728
  -2.000   0.2858   0.00907   0.00228  -0.1079  0.6632  0.1957  -0.8674   0.0000   0.0000   0.0000   0.6313
  -1.750   0.3135   0.00889   0.00222  -0.1080  0.6609  0.2337  -0.7623   0.0000   0.0000   0.0000   0.5974
  -1.500   0.3411   0.00873   0.00216  -0.1081  0.6587  0.2744  -0.7785   0.0000   0.0000   0.0000   0.5689
  -1.250   0.3688   0.00859   0.00212  -0.1082  0.6566  0.3159  -0.7947   0.0000   0.0000   0.0000   0.5446
  -1.000   0.3966   0.00845   0.00211  -0.1084  0.6537  0.3550  -0.8109   0.0000   0.0000   0.0000   0.5237
  -0.750   0.4245   0.00834   0.00209  -0.1085  0.6508  0.3895  -0.8272   0.0000   0.0000   0.0000   0.5054
  -0.500   0.4523   0.00824   0.00207  -0.1086  0.6484  0.4244  -0.8436   0.0000   0.0000   0.0000   0.4894
  -0.250   0.4801   0.00815   0.00206  -0.1086  0.6462  0.4596  -0.8603   0.0000   0.0000   0.0000   0.4752
   0.250   0.5356   0.00797   0.00209  -0.1088  0.6402  0.5300  -0.8966   0.0000   0.0000   0.0000   0.4512
   0.750   0.5901   0.00780   0.00213  -0.1087  0.6345  0.6149  -0.9325   0.0000   0.0000   0.0000   0.4315
   1.000   0.6173   0.00771   0.00218  -0.1086  0.6312  0.6573  -0.9506   0.0000   0.0000   0.0000   0.4230
   1.250   0.6439   0.00762   0.00222  -0.1084  0.6279  0.7057  -0.9703   0.0000   0.0000   0.0000   0.4150
   1.500   0.6699   0.00753   0.00227  -0.1080  0.6248  0.7569  -0.9898   0.0000   0.0000   0.0000   0.4076
   1.750   0.6960   0.00744   0.00233  -0.1076  0.6210  0.8051  -1.0093   0.0000   0.0000   0.0000   0.4007
   2.250   0.7589   0.00725   0.00244  -0.1091  0.6135  0.9303  -1.0563   0.0000   0.0000   0.0000   0.3892
   2.500   0.8137   0.00728   0.00250  -0.1152  0.6088  0.9866  -1.0947   0.0000   0.0000   0.0000   0.3867
   2.750   0.8476   0.00736   0.00255  -0.1166  0.6042  1.0001  -1.1213   0.0000   0.0000   0.0000   0.3825
   3.000   0.8737   0.00742   0.00261  -0.1164  0.5992  1.0001  -1.1451   0.0000   0.0000   0.0000   0.3778
   3.250   0.8995   0.00750   0.00266  -0.1160  0.5937  1.0001  -1.1697   0.0000   0.0000   0.0000   0.3733
   3.500   0.9254   0.00758   0.00274  -0.1157  0.5871  1.0001  -1.1991   0.0000   0.0000   0.0000   0.3691
   3.750   0.9508   0.00768   0.00280  -0.1154  0.5796  1.0001  -1.2330   0.0000   0.0000   0.0000   0.3650
   4.000   0.9763   0.00778   0.00288  -0.1150  0.5712  1.0001  -1.2684   0.0000   0.0000   0.0000   0.3612
   4.250   1.0017   0.00789   0.00298  -0.1146  0.5626  1.0001  -1.3040   0.0000   0.0000   0.0000   0.3575
   4.500   1.0269   0.00802   0.00309  -0.1142  0.5535  1.0001  -1.3395   0.0000   0.0000   0.0000   0.3540
   4.750   1.0518   0.00817   0.00321  -0.1137  0.5441  1.0001  -1.3750   0.0000   0.0000   0.0000   0.3506
   5.000   1.0766   0.00832   0.00334  -0.1133  0.5347  1.0001  -1.4106   0.0000   0.0000   0.0000   0.3474
   5.250   1.1013   0.00848   0.00349  -0.1128  0.5254  1.0001  -1.4487   0.0000   0.0000   0.0000   0.3443
   5.500   1.1254   0.00867   0.00365  -0.1123  0.5151  1.0001  -1.4876   0.0000   0.0000   0.0000   0.3413
   5.750   1.1491   0.00888   0.00384  -0.1116  0.5043  1.0001  -1.5264   0.0000   0.0000   0.0000   0.3383
   6.000   1.1726   0.00910   0.00404  -0.1110  0.4929  1.0001  -1.5653   0.0000   0.0000   0.0000   0.3355
   6.250   1.1949   0.00936   0.00426  -0.1101  0.4781  1.0001  -1.6045   0.0000   0.0000   0.0000   0.3327
   6.500   1.2151   0.00972   0.00454  -0.1089  0.4603  1.0001  -1.6861   0.0000   0.0000   0.0000   0.3298
   6.750   1.2349   0.01009   0.00486  -0.1076  0.4415  1.0001  -1.7975   0.0000   0.0000   0.0000   0.3270
   7.000   1.2542   0.01048   0.00518  -0.1063  0.4245  1.0001  -1.9101   0.0000   0.0000   0.0000   0.3242
   7.250   1.2708   0.01097   0.00558  -0.1045  0.4022  1.0001  -2.0257   0.0000   0.0000   0.0000   0.3214
   7.500   1.2827   0.01163   0.00611  -0.1019  0.3734  1.0001  -2.1315   0.0000   0.0000   0.0000   0.3182
   7.750   1.2903   0.01237   0.00669  -0.0986  0.3432  1.0001  -2.2273   0.0000   0.0000   0.0000   0.3148
   8.000   1.2948   0.01323   0.00740  -0.0950  0.3123  1.0001  -2.3160   0.0000   0.0000   0.0000   0.3114
   8.250   1.2997   0.01421   0.00824  -0.0917  0.2839  1.0001  -2.4060   0.0000   0.0000   0.0000   0.3082
   8.500   1.3054   0.01529   0.00918  -0.0888  0.2576  1.0001  -2.4988   0.0000   0.0000   0.0000   0.3053
   8.750   1.3114   0.01648   0.01026  -0.0863  0.2333  1.0001  -2.5931   0.0000   0.0000   0.0000   0.3026
   9.000   1.3179   0.01777   0.01144  -0.0842  0.2109  1.0001  -2.6893   0.0000   0.0000   0.0000   0.3003
   9.250   1.3263   0.01903   0.01262  -0.0824  0.1924  1.0001  -2.7919   0.0000   0.0000   0.0000   0.2981
   9.500   1.3362   0.02023   0.01377  -0.0809  0.1777  1.0001  -2.9002   0.0000   0.0000   0.0000   0.2960
   9.750   1.3451   0.02152   0.01499  -0.0793  0.1616  1.0001  -3.0063   0.0000   0.0000   0.0000   0.2940
  10.000   1.3536   0.02285   0.01627  -0.0777  0.1463  1.0001  -3.1123   0.0000   0.0000   0.0000   0.2920
  10.250   1.3600   0.02435   0.01768  -0.0760  0.1280  1.0001  -3.2125   0.0000   0.0000   0.0000   0.2901
  10.500   1.3639   0.02602   0.01926  -0.0741  0.1075  1.0001  -3.3056   0.0000   0.0000   0.0000   0.2881
  10.750   1.3664   0.02782   0.02096  -0.0721  0.0883  1.0001  -3.3944   0.0000   0.0000   0.0000   0.2861
  11.000   1.3700   0.02957   0.02263  -0.0703  0.0737  1.0001  -3.4870   0.0000   0.0000   0.0000   0.2841
  11.250   1.3757   0.03117   0.02420  -0.0687  0.0636  1.0001  -3.5877   0.0000   0.0000   0.0000   0.2823
  11.500   1.3826   0.03270   0.02572  -0.0673  0.0558  1.0001  -3.6928   0.0000   0.0000   0.0000   0.2805
  11.750   1.3900   0.03421   0.02722  -0.0660  0.0497  1.0001  -3.8005   0.0000   0.0000   0.0000   0.2789
  12.000   1.3976   0.03574   0.02876  -0.0647  0.0439  1.0001  -3.9166   0.0000   0.0000   0.0000   0.2772
  12.250   1.4046   0.03735   0.03037  -0.0635  0.0379  1.0001  -4.0332   0.0000   0.0000   0.0000   0.2756
  12.500   1.4113   0.03902   0.03204  -0.0623  0.0325  1.0001  -4.1495   0.0000   0.0000   0.0000   0.2741
  12.750   1.4180   0.04073   0.03376  -0.0611  0.0284  1.0001  -4.2664   0.0000   0.0000   0.0000   0.2726
  13.000   1.4247   0.04248   0.03553  -0.0601  0.0254  1.0001  -4.3841   0.0000   0.0000   0.0000   0.2711
  13.250   1.4310   0.04430   0.03737  -0.0590  0.0232  1.0001  -4.5007   0.0000   0.0000   0.0000   0.2697
  13.500   1.4385   0.04605   0.03917  -0.0581  0.0215  1.0001  -4.6223   0.0000   0.0000   0.0000   0.2684
  13.750   1.4444   0.04797   0.04113  -0.0572  0.0201  1.0001  -4.7388   0.0000   0.0000   0.0000   0.2671
  14.000   1.4515   0.04980   0.04303  -0.0564  0.0190  1.0001  -4.8602   0.0000   0.0000   0.0000   0.2658
  14.250   1.4577   0.05175   0.04503  -0.0556  0.0180  1.0001  -4.9793   0.0000   0.0000   0.0000   0.2646
  14.500   1.4628   0.05385   0.04717  -0.0549  0.0172  1.0001  -5.0948   0.0000   0.0000   0.0000   0.2634
  14.750   1.4682   0.05595   0.04934  -0.0542  0.0166  1.0001  -5.2182   0.0000   0.0000   0.0000   0.2622
  15.000   1.4736   0.05807   0.05153  -0.0535  0.0159  1.0001  -5.3456   0.0000   0.0000   0.0000   0.2611
  15.250   1.4783   0.06030   0.05381  -0.0529  0.0154  1.0001  -5.4710   0.0000   0.0000   0.0000   0.2601
  15.500   1.4822   0.06265   0.05623  -0.0524  0.0149  1.0001  -5.5935   0.0000   0.0000   0.0000   0.2591
  15.750   1.4850   0.06515   0.05879  -0.0519  0.0145  1.0001  -5.7110   0.0000   0.0000   0.0000   0.2581
  16.000   1.4864   0.06785   0.06156  -0.0514  0.0142  1.0001  -5.8211   0.0000   0.0000   0.0000   0.2572
  16.250   1.4886   0.07049   0.06428  -0.0511  0.0139  1.0001  -5.9366   0.0000   0.0000   0.0000   0.2563
  16.500   1.4907   0.07320   0.06707  -0.0508  0.0137  1.0001  -6.0592   0.0000   0.0000   0.0000   0.2555
  16.750   1.4921   0.07602   0.06997  -0.0506  0.0135  1.0001  -6.1783   0.0000   0.0000   0.0000   0.2547
  17.000   1.4927   0.07896   0.07300  -0.0504  0.0132  1.0001  -6.2934   0.0000   0.0000   0.0000   0.2540
  17.250   1.4927   0.08201   0.07614  -0.0504  0.0130  1.0001  -6.4053   0.0000   0.0000   0.0000   0.2534
  17.500   1.4921   0.08519   0.07940  -0.0504  0.0128  1.0001  -6.5140   0.0000   0.0000   0.0000   0.2528
  17.750   1.4909   0.08848   0.08278  -0.0505  0.0126  1.0001  -6.6192   0.0000   0.0000   0.0000   0.2523
  18.000   1.4890   0.09189   0.08628  -0.0507  0.0124  1.0001  -6.7202   0.0000   0.0000   0.0000   0.2519
  18.250   1.4864   0.09545   0.08992  -0.0511  0.0122  1.0001  -6.8339   0.0000   0.0000   0.0000   0.2516
  18.500   1.4829   0.09917   0.09372  -0.0515  0.0120  1.0001  -6.9486   0.0000   0.0000   0.0000   0.2514
  18.750   1.4784   0.10308   0.09771  -0.0521  0.0119  1.0001  -7.0547   0.0000   0.0000   0.0000   0.2513
  19.000   1.4728   0.10720   0.10192  -0.0529  0.0117  1.0001  -7.1498   0.0000   0.0000   0.0000   0.2513
  19.250   1.4664   0.11145   0.10626  -0.0538  0.0115  1.0001  -7.2374   0.0000   0.0000   0.0000   0.2515
  19.500   1.4632   0.11528   0.11019  -0.0547  0.0114  1.0001  -7.3479   0.0000   0.0000   0.0000   0.2515
  19.750   1.4598   0.11921   0.11422  -0.0558  0.0113  1.0001  -7.4546   0.0000   0.0000   0.0000   0.2517
  20.000   1.4562   0.12319   0.11830  -0.0570  0.0112  1.0001  -7.5581   0.0000   0.0000   0.0000   0.2520


