xflr5 v6.61

 Calculated polar for: QX0026 v32

 1 1 Reynolds number fixed          Mach number fixed         

 xtrf =   1.000 (top)        1.000 (bottom)
 Mach =   0.000     Re =     0.680 e 6     Ncrit =   5.000

  alpha     CL        CD       CDp       Cm    Top Xtr Bot Xtr   Cpmin    Chinge    XCp    
 ------- -------- --------- --------- -------- ------- ------- -------- --------- ---------
 -10.000  -0.5803   0.01781   0.01176  -0.1069  0.7240  0.0095  -8.0812   0.0000   0.0000   0.0000   0.0491
  -9.750  -0.5557   0.01727   0.01113  -0.1068  0.7222  0.0098  -7.7656   0.0000   0.0000   0.0000   0.0413
  -9.500  -0.5308   0.01675   0.01053  -0.1067  0.7203  0.0102  -7.4543   0.0000   0.0000   0.0000   0.0325
  -9.250  -0.5056   0.01624   0.00994  -0.1066  0.7179  0.0106  -7.1476   0.0000   0.0000   0.0000   0.0226
  -9.000  -0.4801   0.01576   0.00937  -0.1065  0.7156  0.0110  -6.8455   0.0000   0.0000   0.0000   0.0115
  -8.750  -0.4543   0.01532   0.00885  -0.1064  0.7136  0.0114  -6.5643   0.0000   0.0000   0.0000  -0.0011
  -8.500  -0.4290   0.01481   0.00828  -0.1062  0.7118  0.0120  -6.2947   0.0000   0.0000   0.0000  -0.0148
  -8.250  -0.4028   0.01443   0.00784  -0.1062  0.7102  0.0126  -6.0182   0.0000   0.0000   0.0000  -0.0310
  -8.000  -0.3762   0.01407   0.00743  -0.1062  0.7082  0.0132  -5.7460   0.0000   0.0000   0.0000  -0.0500
  -7.750  -0.3495   0.01372   0.00702  -0.1062  0.7061  0.0139  -5.4798   0.0000   0.0000   0.0000  -0.0720
  -7.500  -0.3229   0.01336   0.00661  -0.1061  0.7041  0.0147  -5.2174   0.0000   0.0000   0.0000  -0.0976
  -7.250  -0.2960   0.01305   0.00627  -0.1062  0.7021  0.0156  -4.9527   0.0000   0.0000   0.0000  -0.1281
  -7.000  -0.2689   0.01279   0.00595  -0.1062  0.7005  0.0167  -4.6941   0.0000   0.0000   0.0000  -0.1653
  -6.750  -0.2417   0.01251   0.00562  -0.1062  0.6989  0.0176  -4.4430   0.0000   0.0000   0.0000  -0.2109
  -6.500  -0.2145   0.01222   0.00532  -0.1062  0.6970  0.0188  -4.1941   0.0000   0.0000   0.0000  -0.2684
  -6.250  -0.1870   0.01197   0.00503  -0.1063  0.6951  0.0200  -3.9500   0.0000   0.0000   0.0000  -0.3437
  -6.000  -0.1595   0.01173   0.00475  -0.1063  0.6931  0.0214  -3.7115   0.0000   0.0000   0.0000  -0.4447
  -5.750  -0.1320   0.01150   0.00450  -0.1064  0.6913  0.0231  -3.4759   0.0000   0.0000   0.0000  -0.5881
  -5.500  -0.1043   0.01130   0.00425  -0.1064  0.6894  0.0248  -3.2474   0.0000   0.0000   0.0000  -0.8086
  -5.250  -0.0767   0.01107   0.00402  -0.1065  0.6873  0.0270  -3.0230   0.0000   0.0000   0.0000  -1.1881
  -5.000  -0.0488   0.01087   0.00380  -0.1066  0.6850  0.0293  -2.8043   0.0000   0.0000   0.0000  -2.0066
  -4.750  -0.0210   0.01067   0.00360  -0.1067  0.6830  0.0320  -2.5908   0.0000   0.0000   0.0000  -4.9969
  -4.500   0.0069   0.01049   0.00340  -0.1068  0.6812  0.0352  -2.3829   0.0000   0.0000   0.0000  16.1389
  -4.250   0.0348   0.01032   0.00322  -0.1069  0.6794  0.0393  -2.1804   0.0000   0.0000   0.0000   3.4015
  -4.000   0.0628   0.01016   0.00305  -0.1070  0.6777  0.0444  -1.9929   0.0000   0.0000   0.0000   1.9963
  -3.750   0.0908   0.00999   0.00290  -0.1071  0.6755  0.0510  -1.8178   0.0000   0.0000   0.0000   1.4560
  -3.500   0.1189   0.00982   0.00276  -0.1072  0.6735  0.0604  -1.6475   0.0000   0.0000   0.0000   1.1710
  -3.250   0.1468   0.00966   0.00263  -0.1073  0.6715  0.0726  -1.4853   0.0000   0.0000   0.0000   0.9951
  -3.000   0.1747   0.00949   0.00250  -0.1074  0.6694  0.0893  -1.3478   0.0000   0.0000   0.0000   0.8757
  -2.750   0.2024   0.00932   0.00239  -0.1075  0.6674  0.1103  -1.2185   0.0000   0.0000   0.0000   0.7894
  -2.500   0.2304   0.00915   0.00230  -0.1077  0.6648  0.1336  -1.0922   0.0000   0.0000   0.0000   0.7237
  -2.250   0.2584   0.00899   0.00222  -0.1078  0.6623  0.1582  -0.9765   0.0000   0.0000   0.0000   0.6721
  -2.000   0.2863   0.00884   0.00215  -0.1079  0.6601  0.1860  -0.8669   0.0000   0.0000   0.0000   0.6307
  -1.750   0.3140   0.00867   0.00208  -0.1080  0.6580  0.2203  -0.7631   0.0000   0.0000   0.0000   0.5967
  -1.500   0.3417   0.00851   0.00203  -0.1082  0.6558  0.2614  -0.7792   0.0000   0.0000   0.0000   0.5684
  -1.250   0.3695   0.00835   0.00200  -0.1083  0.6531  0.3003  -0.7954   0.0000   0.0000   0.0000   0.5441
  -1.000   0.3973   0.00821   0.00197  -0.1084  0.6503  0.3414  -0.8117   0.0000   0.0000   0.0000   0.5233
  -0.750   0.4252   0.00811   0.00194  -0.1085  0.6478  0.3755  -0.8281   0.0000   0.0000   0.0000   0.5051
  -0.500   0.4531   0.00802   0.00193  -0.1086  0.6456  0.4108  -0.8444   0.0000   0.0000   0.0000   0.4891
  -0.250   0.4811   0.00793   0.00194  -0.1087  0.6427  0.4433  -0.8611   0.0000   0.0000   0.0000   0.4750
   0.000   0.5089   0.00783   0.00194  -0.1088  0.6398  0.4793  -0.8793   0.0000   0.0000   0.0000   0.4623
   0.250   0.5366   0.00776   0.00194  -0.1089  0.6370  0.5120  -0.8975   0.0000   0.0000   0.0000   0.4510
   0.500   0.5641   0.00768   0.00196  -0.1089  0.6342  0.5514  -0.9156   0.0000   0.0000   0.0000   0.4408
   0.750   0.5916   0.00759   0.00200  -0.1089  0.6310  0.5938  -0.9336   0.0000   0.0000   0.0000   0.4315
   1.000   0.6189   0.00751   0.00203  -0.1089  0.6277  0.6343  -0.9518   0.0000   0.0000   0.0000   0.4229
   1.250   0.6457   0.00744   0.00207  -0.1087  0.6248  0.6809  -0.9717   0.0000   0.0000   0.0000   0.4150
   1.500   0.6723   0.00734   0.00213  -0.1085  0.6211  0.7310  -0.9914   0.0000   0.0000   0.0000   0.4077
   1.750   0.6985   0.00725   0.00218  -0.1081  0.6173  0.7792  -1.0110   0.0000   0.0000   0.0000   0.4009
   2.250   0.7509   0.00705   0.00229  -0.1073  0.6095  0.8851  -1.0518   0.0000   0.0000   0.0000   0.3884
   2.500   0.8028   0.00702   0.00236  -0.1127  0.6050  0.9585  -1.0887   0.0000   0.0000   0.0000   0.3855
   2.750   0.8468   0.00709   0.00242  -0.1164  0.6001  0.9975  -1.1211   0.0000   0.0000   0.0000   0.3824
   3.000   0.8751   0.00716   0.00247  -0.1167  0.5947  1.0001  -1.1463   0.0000   0.0000   0.0000   0.3779
   3.250   0.9010   0.00724   0.00253  -0.1163  0.5889  1.0001  -1.1709   0.0000   0.0000   0.0000   0.3734
   3.500   0.9265   0.00734   0.00260  -0.1159  0.5818  1.0001  -1.2001   0.0000   0.0000   0.0000   0.3691
   3.750   0.9522   0.00743   0.00268  -0.1156  0.5733  1.0001  -1.2344   0.0000   0.0000   0.0000   0.3651
   4.000   0.9777   0.00753   0.00276  -0.1153  0.5651  1.0001  -1.2698   0.0000   0.0000   0.0000   0.3613
   4.250   1.0029   0.00766   0.00286  -0.1148  0.5562  1.0001  -1.3051   0.0000   0.0000   0.0000   0.3576
   4.500   1.0278   0.00780   0.00297  -0.1144  0.5467  1.0001  -1.3405   0.0000   0.0000   0.0000   0.3540
   4.750   1.0526   0.00795   0.00309  -0.1139  0.5370  1.0001  -1.3759   0.0000   0.0000   0.0000   0.3507
   5.250   1.1021   0.00827   0.00337  -0.1130  0.5177  1.0001  -1.4497   0.0000   0.0000   0.0000   0.3443
   5.500   1.1262   0.00847   0.00354  -0.1124  0.5070  1.0001  -1.4886   0.0000   0.0000   0.0000   0.3413
   5.750   1.1499   0.00867   0.00373  -0.1118  0.4959  1.0001  -1.5275   0.0000   0.0000   0.0000   0.3384
   6.000   1.1731   0.00891   0.00393  -0.1111  0.4834  1.0001  -1.5662   0.0000   0.0000   0.0000   0.3355
   6.250   1.1948   0.00921   0.00418  -0.1101  0.4668  1.0001  -1.6048   0.0000   0.0000   0.0000   0.3327
   6.500   1.2150   0.00957   0.00446  -0.1089  0.4480  1.0001  -1.6869   0.0000   0.0000   0.0000   0.3298
   6.750   1.2348   0.00995   0.00478  -0.1076  0.4302  1.0001  -1.7984   0.0000   0.0000   0.0000   0.3270
   7.000   1.2541   0.01034   0.00511  -0.1063  0.4123  1.0001  -1.9115   0.0000   0.0000   0.0000   0.3242
   7.250   1.2687   0.01092   0.00556  -0.1042  0.3851  1.0001  -2.0224   0.0000   0.0000   0.0000   0.3212
   7.500   1.2801   0.01161   0.00610  -0.1016  0.3538  1.0001  -2.1267   0.0000   0.0000   0.0000   0.3181
   7.750   1.2866   0.01238   0.00670  -0.0981  0.3233  1.0001  -2.2197   0.0000   0.0000   0.0000   0.3146
   8.000   1.2916   0.01325   0.00742  -0.0945  0.2935  1.0001  -2.3093   0.0000   0.0000   0.0000   0.3112
   8.250   1.2980   0.01418   0.00822  -0.0915  0.2662  1.0001  -2.4035   0.0000   0.0000   0.0000   0.3081
   8.500   1.3050   0.01520   0.00912  -0.0888  0.2426  1.0001  -2.5001   0.0000   0.0000   0.0000   0.3053
   8.750   1.3112   0.01639   0.01019  -0.0864  0.2188  1.0001  -2.5949   0.0000   0.0000   0.0000   0.3027
   9.000   1.3187   0.01762   0.01132  -0.0843  0.1977  1.0001  -2.6942   0.0000   0.0000   0.0000   0.3003
   9.250   1.3285   0.01878   0.01243  -0.0827  0.1822  1.0001  -2.8011   0.0000   0.0000   0.0000   0.2982
   9.500   1.3387   0.01997   0.01355  -0.0812  0.1666  1.0001  -2.9102   0.0000   0.0000   0.0000   0.2962
   9.750   1.3476   0.02125   0.01477  -0.0796  0.1510  1.0001  -3.0169   0.0000   0.0000   0.0000   0.2942
  10.000   1.3555   0.02263   0.01608  -0.0780  0.1339  1.0001  -3.1210   0.0000   0.0000   0.0000   0.2922
  10.250   1.3608   0.02419   0.01755  -0.0761  0.1140  1.0001  -3.2179   0.0000   0.0000   0.0000   0.2901
  10.500   1.3636   0.02596   0.01920  -0.0741  0.0934  1.0001  -3.3073   0.0000   0.0000   0.0000   0.2881
  10.750   1.3673   0.02767   0.02084  -0.0723  0.0769  1.0001  -3.4000   0.0000   0.0000   0.0000   0.2861
  11.000   1.3732   0.02925   0.02237  -0.0706  0.0659  1.0001  -3.5005   0.0000   0.0000   0.0000   0.2842
  11.250   1.3800   0.03076   0.02386  -0.0691  0.0576  1.0001  -3.6052   0.0000   0.0000   0.0000   0.2824
  11.500   1.3881   0.03220   0.02529  -0.0678  0.0513  1.0001  -3.7148   0.0000   0.0000   0.0000   0.2807
  11.750   1.3962   0.03364   0.02674  -0.0665  0.0455  1.0001  -3.8254   0.0000   0.0000   0.0000   0.2790
  12.000   1.4037   0.03517   0.02827  -0.0652  0.0395  1.0001  -3.9431   0.0000   0.0000   0.0000   0.2774
  12.250   1.4106   0.03678   0.02987  -0.0639  0.0338  1.0001  -4.0599   0.0000   0.0000   0.0000   0.2758
  12.500   1.4176   0.03841   0.03151  -0.0627  0.0291  1.0001  -4.1778   0.0000   0.0000   0.0000   0.2742
  12.750   1.4247   0.04008   0.03319  -0.0616  0.0258  1.0001  -4.2968   0.0000   0.0000   0.0000   0.2727
  13.000   1.4315   0.04181   0.03494  -0.0605  0.0234  1.0001  -4.4155   0.0000   0.0000   0.0000   0.2713
  13.250   1.4394   0.04347   0.03665  -0.0596  0.0216  1.0001  -4.5389   0.0000   0.0000   0.0000   0.2699
  13.750   1.4537   0.04703   0.04029  -0.0578  0.0188  1.0001  -4.7827   0.0000   0.0000   0.0000   0.2672
  14.000   1.4605   0.04888   0.04219  -0.0569  0.0178  1.0001  -4.9043   0.0000   0.0000   0.0000   0.2659
  14.500   1.4728   0.05279   0.04620  -0.0554  0.0163  1.0001  -5.1447   0.0000   0.0000   0.0000   0.2635
  14.750   1.4789   0.05481   0.04828  -0.0547  0.0156  1.0001  -5.2745   0.0000   0.0000   0.0000   0.2623
  15.000   1.4841   0.05693   0.05046  -0.0540  0.0150  1.0001  -5.4028   0.0000   0.0000   0.0000   0.2612
  15.250   1.4883   0.05918   0.05277  -0.0534  0.0145  1.0001  -5.5274   0.0000   0.0000   0.0000   0.2601
  15.750   1.4954   0.06395   0.05767  -0.0523  0.0139  1.0001  -5.7697   0.0000   0.0000   0.0000   0.2581
  16.000   1.4990   0.06638   0.06018  -0.0518  0.0136  1.0001  -5.8915   0.0000   0.0000   0.0000   0.2572
  16.250   1.5018   0.06892   0.06279  -0.0514  0.0133  1.0001  -6.0147   0.0000   0.0000   0.0000   0.2562
  16.500   1.5040   0.07158   0.06553  -0.0511  0.0131  1.0001  -6.1397   0.0000   0.0000   0.0000   0.2554
  16.750   1.5055   0.07436   0.06839  -0.0508  0.0129  1.0001  -6.2613   0.0000   0.0000   0.0000   0.2546
  17.000   1.5063   0.07726   0.07137  -0.0506  0.0126  1.0001  -6.3794   0.0000   0.0000   0.0000   0.2539
  17.250   1.5062   0.08029   0.07448  -0.0505  0.0124  1.0001  -6.4929   0.0000   0.0000   0.0000   0.2532
  17.500   1.5053   0.08346   0.07773  -0.0505  0.0123  1.0001  -6.6021   0.0000   0.0000   0.0000   0.2526
  17.750   1.5036   0.08679   0.08114  -0.0506  0.0121  1.0001  -6.7062   0.0000   0.0000   0.0000   0.2521
  18.000   1.5008   0.09032   0.08474  -0.0508  0.0119  1.0001  -6.8026   0.0000   0.0000   0.0000   0.2517
  18.250   1.4963   0.09409   0.08859  -0.0511  0.0117  1.0001  -6.9114   0.0000   0.0000   0.0000   0.2514
  18.500   1.4923   0.09785   0.09244  -0.0515  0.0115  1.0001  -7.0229   0.0000   0.0000   0.0000   0.2511
  18.750   1.4903   0.10140   0.09609  -0.0520  0.0114  1.0001  -7.1481   0.0000   0.0000   0.0000   0.2509
  19.000   1.4875   0.10508   0.09987  -0.0526  0.0113  1.0001  -7.2674   0.0000   0.0000   0.0000   0.2507
  19.250   1.4840   0.10887   0.10376  -0.0533  0.0111  1.0001  -7.3801   0.0000   0.0000   0.0000   0.2507
  19.500   1.4802   0.11276   0.10774  -0.0542  0.0110  1.0001  -7.4889   0.0000   0.0000   0.0000   0.2507
  19.750   1.4762   0.11672   0.11179  -0.0552  0.0109  1.0001  -7.5947   0.0000   0.0000   0.0000   0.2509
  20.000   1.4721   0.12074   0.11590  -0.0564  0.0108  1.0001  -7.6977   0.0000   0.0000   0.0000   0.2511


