xflr5 v6.61

 Calculated polar for: QX0026 v32

 1 1 Reynolds number fixed          Mach number fixed         

 xtrf =   1.000 (top)        1.000 (bottom)
 Mach =   0.000     Re =     0.720 e 6     Ncrit =   5.000

  alpha     CL        CD       CDp       Cm    Top Xtr Bot Xtr   Cpmin    Chinge    XCp    
 ------- -------- --------- --------- -------- ------- ------- -------- --------- ---------
 -10.000  -0.5824   0.01741   0.01136  -0.1067  0.7221  0.0093  -8.1220   0.0000   0.0000   0.0000   0.0502
  -9.750  -0.5578   0.01686   0.01073  -0.1066  0.7203  0.0096  -7.8047   0.0000   0.0000   0.0000   0.0424
  -9.500  -0.5325   0.01635   0.01017  -0.1065  0.7180  0.0100  -7.4879   0.0000   0.0000   0.0000   0.0334
  -9.250  -0.5071   0.01588   0.00961  -0.1064  0.7157  0.0104  -7.1767   0.0000   0.0000   0.0000   0.0235
  -9.000  -0.4816   0.01542   0.00908  -0.1063  0.7135  0.0108  -6.8711   0.0000   0.0000   0.0000   0.0125
  -8.750  -0.4557   0.01500   0.00857  -0.1062  0.7117  0.0112  -6.5873   0.0000   0.0000   0.0000   0.0000
  -8.500  -0.4300   0.01455   0.00804  -0.1061  0.7101  0.0117  -6.3160   0.0000   0.0000   0.0000  -0.0139
  -8.250  -0.4037   0.01413   0.00759  -0.1061  0.7082  0.0123  -6.0388   0.0000   0.0000   0.0000  -0.0301
  -8.000  -0.3771   0.01378   0.00720  -0.1061  0.7061  0.0129  -5.7637   0.0000   0.0000   0.0000  -0.0490
  -7.750  -0.3504   0.01345   0.00681  -0.1061  0.7041  0.0136  -5.4950   0.0000   0.0000   0.0000  -0.0709
  -7.500  -0.3234   0.01315   0.00644  -0.1061  0.7021  0.0143  -5.2303   0.0000   0.0000   0.0000  -0.0966
  -7.250  -0.2968   0.01281   0.00607  -0.1060  0.7004  0.0153  -4.9679   0.0000   0.0000   0.0000  -0.1267
  -7.000  -0.2696   0.01255   0.00577  -0.1061  0.6987  0.0163  -4.7065   0.0000   0.0000   0.0000  -0.1639
  -6.750  -0.2421   0.01229   0.00547  -0.1061  0.6969  0.0173  -4.4521   0.0000   0.0000   0.0000  -0.2099
  -6.500  -0.2149   0.01199   0.00516  -0.1062  0.6950  0.0184  -4.2035   0.0000   0.0000   0.0000  -0.2670
  -6.250  -0.1874   0.01175   0.00488  -0.1062  0.6931  0.0196  -3.9582   0.0000   0.0000   0.0000  -0.3418
  -6.000  -0.1598   0.01154   0.00462  -0.1063  0.6913  0.0209  -3.7183   0.0000   0.0000   0.0000  -0.4430
  -5.750  -0.1324   0.01130   0.00436  -0.1063  0.6896  0.0226  -3.4830   0.0000   0.0000   0.0000  -0.5848
  -5.500  -0.1045   0.01111   0.00413  -0.1064  0.6875  0.0244  -3.2525   0.0000   0.0000   0.0000  -0.8056
  -5.250  -0.0768   0.01087   0.00390  -0.1065  0.6852  0.0265  -3.0278   0.0000   0.0000   0.0000  -1.1841
  -4.750  -0.0211   0.01049   0.00349  -0.1066  0.6812  0.0314  -2.5943   0.0000   0.0000   0.0000  -4.9506
  -4.500   0.0068   0.01033   0.00329  -0.1067  0.6795  0.0343  -2.3860   0.0000   0.0000   0.0000  16.4531
  -4.250   0.0347   0.01017   0.00312  -0.1068  0.6778  0.0384  -2.1828   0.0000   0.0000   0.0000   3.4068
  -4.000   0.0628   0.00999   0.00297  -0.1070  0.6757  0.0434  -1.9940   0.0000   0.0000   0.0000   1.9944
  -3.750   0.0909   0.00983   0.00282  -0.1071  0.6736  0.0496  -1.8186   0.0000   0.0000   0.0000   1.4550
  -3.500   0.1190   0.00967   0.00268  -0.1072  0.6716  0.0587  -1.6481   0.0000   0.0000   0.0000   1.1702
  -3.250   0.1469   0.00951   0.00255  -0.1073  0.6697  0.0704  -1.4857   0.0000   0.0000   0.0000   0.9945
  -3.000   0.1747   0.00935   0.00242  -0.1074  0.6678  0.0862  -1.3482   0.0000   0.0000   0.0000   0.8753
  -2.750   0.2027   0.00917   0.00232  -0.1075  0.6653  0.1065  -1.2185   0.0000   0.0000   0.0000   0.7887
  -2.500   0.2307   0.00900   0.00223  -0.1077  0.6627  0.1297  -1.0921   0.0000   0.0000   0.0000   0.7231
  -2.250   0.2586   0.00885   0.00214  -0.1078  0.6604  0.1535  -0.9763   0.0000   0.0000   0.0000   0.6717
  -2.000   0.2865   0.00870   0.00207  -0.1079  0.6583  0.1802  -0.8667   0.0000   0.0000   0.0000   0.6303
  -1.750   0.3143   0.00855   0.00200  -0.1081  0.6563  0.2122  -0.7636   0.0000   0.0000   0.0000   0.5964
  -1.500   0.3421   0.00837   0.00196  -0.1082  0.6538  0.2531  -0.7796   0.0000   0.0000   0.0000   0.5680
  -1.250   0.3700   0.00822   0.00192  -0.1083  0.6510  0.2910  -0.7959   0.0000   0.0000   0.0000   0.5438
  -1.000   0.3977   0.00808   0.00189  -0.1084  0.6484  0.3328  -0.8121   0.0000   0.0000   0.0000   0.5231
  -0.750   0.4256   0.00799   0.00186  -0.1085  0.6462  0.3670  -0.8285   0.0000   0.0000   0.0000   0.5049
  -0.500   0.4536   0.00788   0.00186  -0.1087  0.6435  0.4023  -0.8449   0.0000   0.0000   0.0000   0.4889
  -0.250   0.4816   0.00779   0.00186  -0.1088  0.6406  0.4339  -0.8616   0.0000   0.0000   0.0000   0.4748
   0.000   0.5094   0.00771   0.00186  -0.1089  0.6379  0.4698  -0.8798   0.0000   0.0000   0.0000   0.4622
   0.250   0.5371   0.00764   0.00186  -0.1089  0.6353  0.5011  -0.8980   0.0000   0.0000   0.0000   0.4509
   0.500   0.5650   0.00755   0.00189  -0.1090  0.6321  0.5385  -0.9162   0.0000   0.0000   0.0000   0.4407
   0.750   0.5925   0.00747   0.00192  -0.1090  0.6288  0.5814  -0.9343   0.0000   0.0000   0.0000   0.4314
   1.000   0.6198   0.00740   0.00194  -0.1090  0.6258  0.6213  -0.9525   0.0000   0.0000   0.0000   0.4229
   1.250   0.6469   0.00732   0.00199  -0.1089  0.6226  0.6660  -0.9725   0.0000   0.0000   0.0000   0.4151
   1.500   0.6736   0.00722   0.00205  -0.1087  0.6187  0.7153  -0.9923   0.0000   0.0000   0.0000   0.4078
   1.750   0.6998   0.00714   0.00209  -0.1084  0.6151  0.7640  -1.0119   0.0000   0.0000   0.0000   0.4010
   2.000   0.7259   0.00706   0.00215  -0.1080  0.6113  0.8099  -1.0315   0.0000   0.0000   0.0000   0.3946
   2.250   0.7518   0.00696   0.00221  -0.1076  0.6071  0.8614  -1.0525   0.0000   0.0000   0.0000   0.3885
   2.500   0.7904   0.00688   0.00228  -0.1099  0.6030  0.9372  -1.0818   0.0000   0.0000   0.0000   0.3842
   2.750   0.8436   0.00693   0.00234  -0.1157  0.5975  0.9904  -1.1194   0.0000   0.0000   0.0000   0.3820
   3.000   0.8758   0.00702   0.00240  -0.1168  0.5922  1.0001  -1.1469   0.0000   0.0000   0.0000   0.3779
   3.250   0.9019   0.00709   0.00246  -0.1165  0.5856  1.0001  -1.1716   0.0000   0.0000   0.0000   0.3735
   3.500   0.9275   0.00718   0.00253  -0.1162  0.5781  1.0001  -1.2009   0.0000   0.0000   0.0000   0.3692
   3.750   0.9529   0.00729   0.00260  -0.1157  0.5698  1.0001  -1.2350   0.0000   0.0000   0.0000   0.3652
   4.000   0.9783   0.00740   0.00269  -0.1154  0.5611  1.0001  -1.2704   0.0000   0.0000   0.0000   0.3613
   4.250   1.0034   0.00752   0.00279  -0.1149  0.5518  1.0001  -1.3057   0.0000   0.0000   0.0000   0.3576
   4.500   1.0285   0.00766   0.00290  -0.1145  0.5420  1.0001  -1.3412   0.0000   0.0000   0.0000   0.3541
   4.750   1.0534   0.00781   0.00302  -0.1141  0.5322  1.0001  -1.3767   0.0000   0.0000   0.0000   0.3507
   5.000   1.0783   0.00797   0.00316  -0.1136  0.5229  1.0001  -1.4124   0.0000   0.0000   0.0000   0.3475
   5.250   1.1027   0.00814   0.00331  -0.1131  0.5129  1.0001  -1.4504   0.0000   0.0000   0.0000   0.3444
   5.500   1.1267   0.00834   0.00348  -0.1125  0.5021  1.0001  -1.4893   0.0000   0.0000   0.0000   0.3414
   5.750   1.1506   0.00855   0.00367  -0.1119  0.4907  1.0001  -1.5283   0.0000   0.0000   0.0000   0.3385
   6.000   1.1734   0.00880   0.00388  -0.1112  0.4769  1.0001  -1.5667   0.0000   0.0000   0.0000   0.3356
   6.250   1.1945   0.00913   0.00413  -0.1101  0.4597  1.0001  -1.6048   0.0000   0.0000   0.0000   0.3327
   6.500   1.2147   0.00950   0.00442  -0.1089  0.4402  1.0001  -1.6868   0.0000   0.0000   0.0000   0.3298
   6.750   1.2351   0.00985   0.00473  -0.1077  0.4233  1.0001  -1.7997   0.0000   0.0000   0.0000   0.3270
   7.000   1.2537   0.01028   0.00507  -0.1063  0.4032  1.0001  -1.9116   0.0000   0.0000   0.0000   0.3242
   7.250   1.2674   0.01090   0.00555  -0.1040  0.3739  1.0001  -2.0202   0.0000   0.0000   0.0000   0.3212
   7.500   1.2783   0.01162   0.00610  -0.1013  0.3415  1.0001  -2.1233   0.0000   0.0000   0.0000   0.3180
   7.750   1.2846   0.01238   0.00671  -0.0978  0.3104  1.0001  -2.2155   0.0000   0.0000   0.0000   0.3145
   8.000   1.2906   0.01323   0.00741  -0.0944  0.2823  1.0001  -2.3078   0.0000   0.0000   0.0000   0.3112
   8.250   1.2975   0.01414   0.00819  -0.0914  0.2567  1.0001  -2.4033   0.0000   0.0000   0.0000   0.3081
   8.500   1.3047   0.01515   0.00909  -0.0888  0.2330  1.0001  -2.5005   0.0000   0.0000   0.0000   0.3053
   8.750   1.3115   0.01631   0.01013  -0.0864  0.2102  1.0001  -2.5971   0.0000   0.0000   0.0000   0.3027
   9.250   1.3305   0.01860   0.01228  -0.0829  0.1757  1.0001  -2.8083   0.0000   0.0000   0.0000   0.2983
   9.500   1.3401   0.01981   0.01342  -0.0813  0.1598  1.0001  -2.9162   0.0000   0.0000   0.0000   0.2962
   9.750   1.3493   0.02108   0.01463  -0.0798  0.1441  1.0001  -3.0236   0.0000   0.0000   0.0000   0.2942
  10.000   1.3561   0.02253   0.01599  -0.0780  0.1257  1.0001  -3.1246   0.0000   0.0000   0.0000   0.2922
  10.250   1.3604   0.02416   0.01753  -0.0761  0.1046  1.0001  -3.2183   0.0000   0.0000   0.0000   0.2902
  10.500   1.3637   0.02589   0.01915  -0.0742  0.0854  1.0001  -3.3092   0.0000   0.0000   0.0000   0.2881
  10.750   1.3686   0.02752   0.02072  -0.0724  0.0715  1.0001  -3.4059   0.0000   0.0000   0.0000   0.2862
  11.000   1.3754   0.02903   0.02219  -0.0708  0.0618  1.0001  -3.5099   0.0000   0.0000   0.0000   0.2843
  11.250   1.3833   0.03046   0.02361  -0.0694  0.0545  1.0001  -3.6183   0.0000   0.0000   0.0000   0.2826
  11.500   1.3916   0.03188   0.02502  -0.0681  0.0486  1.0001  -3.7290   0.0000   0.0000   0.0000   0.2808
  11.750   1.3997   0.03332   0.02647  -0.0668  0.0429  1.0001  -3.8402   0.0000   0.0000   0.0000   0.2791
  12.000   1.4074   0.03483   0.02797  -0.0655  0.0368  1.0001  -3.9592   0.0000   0.0000   0.0000   0.2775
  12.250   1.4144   0.03642   0.02956  -0.0642  0.0313  1.0001  -4.0765   0.0000   0.0000   0.0000   0.2759
  12.500   1.4214   0.03804   0.03119  -0.0630  0.0273  1.0001  -4.1951   0.0000   0.0000   0.0000   0.2743
  12.750   1.4289   0.03967   0.03284  -0.0619  0.0245  1.0001  -4.3161   0.0000   0.0000   0.0000   0.2728
  13.000   1.4366   0.04132   0.03452  -0.0609  0.0224  1.0001  -4.4383   0.0000   0.0000   0.0000   0.2714
  13.250   1.4440   0.04301   0.03624  -0.0599  0.0206  1.0001  -4.5608   0.0000   0.0000   0.0000   0.2700
  13.500   1.4516   0.04473   0.03800  -0.0590  0.0193  1.0001  -4.6843   0.0000   0.0000   0.0000   0.2686
  13.750   1.4591   0.04648   0.03980  -0.0581  0.0181  1.0001  -4.8086   0.0000   0.0000   0.0000   0.2673
  14.000   1.4654   0.04837   0.04173  -0.0572  0.0171  1.0001  -4.9293   0.0000   0.0000   0.0000   0.2660
  14.250   1.4725   0.05021   0.04362  -0.0564  0.0164  1.0001  -5.0531   0.0000   0.0000   0.0000   0.2648
  14.500   1.4791   0.05213   0.04561  -0.0557  0.0157  1.0001  -5.1763   0.0000   0.0000   0.0000   0.2636
  14.750   1.4850   0.05415   0.04767  -0.0550  0.0150  1.0001  -5.3074   0.0000   0.0000   0.0000   0.2624
  15.000   1.4899   0.05630   0.04987  -0.0543  0.0145  1.0001  -5.4349   0.0000   0.0000   0.0000   0.2613
  15.250   1.4938   0.05857   0.05220  -0.0536  0.0141  1.0001  -5.5576   0.0000   0.0000   0.0000   0.2602
  15.500   1.4987   0.06078   0.05448  -0.0530  0.0138  1.0001  -5.6857   0.0000   0.0000   0.0000   0.2591
  15.750   1.5031   0.06308   0.05686  -0.0525  0.0135  1.0001  -5.8118   0.0000   0.0000   0.0000   0.2581
  16.000   1.5067   0.06549   0.05934  -0.0520  0.0132  1.0001  -5.9352   0.0000   0.0000   0.0000   0.2571
  16.250   1.5095   0.06802   0.06193  -0.0516  0.0130  1.0001  -6.0608   0.0000   0.0000   0.0000   0.2562
  16.500   1.5117   0.07066   0.06465  -0.0513  0.0127  1.0001  -6.1867   0.0000   0.0000   0.0000   0.2554
  16.750   1.5132   0.07342   0.06749  -0.0510  0.0125  1.0001  -6.3095   0.0000   0.0000   0.0000   0.2546
  17.000   1.5138   0.07632   0.07046  -0.0508  0.0123  1.0001  -6.4282   0.0000   0.0000   0.0000   0.2538
  17.250   1.5135   0.07936   0.07357  -0.0506  0.0121  1.0001  -6.5413   0.0000   0.0000   0.0000   0.2531
  17.500   1.5122   0.08258   0.07687  -0.0506  0.0119  1.0001  -6.6480   0.0000   0.0000   0.0000   0.2525
  17.750   1.5094   0.08604   0.08041  -0.0506  0.0117  1.0001  -6.7453   0.0000   0.0000   0.0000   0.2520
  18.000   1.5060   0.08962   0.08408  -0.0508  0.0115  1.0001  -6.8414   0.0000   0.0000   0.0000   0.2516
  18.250   1.5050   0.09292   0.08746  -0.0510  0.0114  1.0001  -6.9764   0.0000   0.0000   0.0000   0.2512
  18.500   1.5032   0.09635   0.09099  -0.0514  0.0112  1.0001  -7.1060   0.0000   0.0000   0.0000   0.2508
  18.750   1.5008   0.09991   0.09465  -0.0518  0.0111  1.0001  -7.2303   0.0000   0.0000   0.0000   0.2505
  19.000   1.4977   0.10361   0.09843  -0.0524  0.0110  1.0001  -7.3491   0.0000   0.0000   0.0000   0.2504
  19.250   1.4942   0.10739   0.10231  -0.0531  0.0109  1.0001  -7.4632   0.0000   0.0000   0.0000   0.2503
  19.500   1.4903   0.11126   0.10627  -0.0539  0.0108  1.0001  -7.5734   0.0000   0.0000   0.0000   0.2503
  19.750   1.4863   0.11520   0.11030  -0.0549  0.0107  1.0001  -7.6809   0.0000   0.0000   0.0000   0.2504
  20.000   1.4822   0.11919   0.11438  -0.0560  0.0105  1.0001  -7.7864   0.0000   0.0000   0.0000   0.2506


